CHEMBL2221182
 OpenBabel10172500213D

 36 37  0  0  0  0  0  0  0  0999 V2000
  140.2140  138.7860  151.1590 C   0  0  0  0  0  2  0  0  0  0  0  0
  138.7530  138.9170  151.0400 N   0  0  0  0  0  0  0  0  0  0  0  0
  138.4970  139.8370  151.3980 H   0  0  0  0  0  0  0  0  0  0  0  0
  138.0970  138.7730  149.4870 S   0  0  0  0  0  0  0  0  0  0  0  0
  137.3890  140.0060  149.2340 O   0  0  0  0  0  0  0  0  0  0  0  0
  139.1280  138.2920  148.5980 O   0  0  0  0  0  0  0  0  0  0  0  0
  136.8810  137.4970  149.7030 C   0  0  0  0  0  0  0  0  0  0  0  0
  135.8820  137.3380  148.7400 C   0  0  0  0  0  3  0  0  0  0  0  0
  134.9290  136.3280  148.8970 C   0  0  0  0  0  3  0  0  0  0  0  0
  134.9830  135.4750  150.0110 C   0  0  0  0  0  0  0  0  0  0  0  0
  135.9970  135.6360  150.9640 C   0  0  0  0  0  3  0  0  0  0  0  0
  136.9510  136.6440  150.8090 C   0  0  0  0  0  3  0  0  0  0  0  0
  133.9440  134.4210  150.1790 C   0  0  0  0  0  0  0  0  0  0  0  0
  132.7190  134.6790  150.5070 N   0  0  0  0  0  0  0  0  0  0  0  0
  134.2540  133.1090  149.9750 N   0  0  0  0  0  4  0  0  0  0  0  0
  132.4380  135.6100  150.6660 H   0  0  0  0  0  0  0  0  0  0  0  0
  132.0680  133.9470  150.5960 H   0  0  0  0  0  0  0  0  0  0  0  0
  135.1710  132.8530  149.7240 H   0  0  0  0  0  0  0  0  0  0  0  0
  133.5610  132.4170  150.0800 H   0  0  0  0  0  0  0  0  0  0  0  0
  140.5560  137.7480  152.2310 C   0  0  0  0  0  2  0  0  0  0  0  0
  141.1830  138.3840  153.4740 C   0  0  0  0  0  2  0  0  0  0  0  0
  140.0230  137.6220  155.4730 N   0  0  0  0  0  0  0  0  0  0  0  0
  140.1550  138.6390  154.5580 C   0  0  0  0  0  0  0  0  0  0  0  0
  139.4540  139.6460  154.5500 O   0  0  0  0  0  0  0  0  0  0  0  0
  140.6180  136.8410  155.4090 H   0  0  0  0  0  0  0  0  0  0  0  0
  139.0350  137.6680  156.5290 C   0  0  0  0  0  2  0  0  0  0  0  0
  135.4660  135.4110  155.5210 C   0  0  0  0  0  0  0  0  0  0  0  0
  136.1760  136.1190  154.5410 C   0  0  0  0  0  3  0  0  0  0  0  0
  137.3180  136.8560  154.8700 C   0  0  0  0  0  3  0  0  0  0  0  0
  137.7800  136.9070  156.1890 C   0  0  0  0  0  0  0  0  0  0  0  0
  137.0510  136.2290  157.1750 C   0  0  0  0  0  3  0  0  0  0  0  0
  135.9100  135.4710  156.8520 C   0  0  0  0  0  0  0  0  0  0  0  0
  133.6840  134.9890  153.9970 C   0  0  0  0  0  1  0  0  0  0  0  0
  134.3150  134.7220  155.2470 O   0  0  0  0  0  0  0  0  0  0  0  0
  135.3300  134.8820  157.9480 O   0  0  0  0  0  0  0  0  0  0  0  0
  136.0530  134.9550  159.1710 C   0  0  0  0  0  1  0  0  0  0  0  0
  1 20  1  0  0  0  0
  2  1  1  0  0  0  0
  2  3  1  0  0  0  0
  4  7  1  0  0  0  0
  4  2  1  0  0  0  0
  5  4  2  0  0  0  0
  6  4  2  0  0  0  0
  7 12  1  0  0  0  0
  8  9  1  0  0  0  0
  8  7  2  0  0  0  0
  9 10  2  0  0  0  0
 10 13  1  0  0  0  0
 10 11  1  0  0  0  0
 12 11  2  0  0  0  0
 13 14  1  0  0  0  0
 14 17  1  0  0  0  0
 14 16  1  0  0  0  0
 15 19  1  0  0  0  0
 15 13  2  0  0  0  0
 18 15  1  0  0  0  0
 20 21  1  0  0  0  0
 21 23  1  0  0  0  0
 22 26  1  0  0  0  0
 23 22  1  0  0  0  0
 24 23  2  0  0  0  0
 25 22  1  0  0  0  0
 27 32  1  0  0  0  0
 28 29  1  0  0  0  0
 28 27  2  0  0  0  0
 29 30  2  0  0  0  0
 30 26  1  0  0  0  0
 30 31  1  0  0  0  0
 32 31  2  0  0  0  0
 32 35  1  0  0  0  0
 33 34  1  0  0  0  0
 34 27  1  0  0  0  0
 35 36  1  0  0  0  0
M  END
>  <MODEL>
1

>  <REMARK>
 VINA RESULT:    -7.251      0.000      0.000
 INTER + INTRA:         -13.259
 INTER:                 -11.649
 INTRA:                  -1.610
 UNBOUND:                -1.346
  Name = CHEMBL2221182
  13 active torsions:
  status: ('A' for Active; 'I' for Inactive)
    1  A    between atoms: C_1  and  O_2
    2  A    between atoms: O_2  and  C_3
    3  A    between atoms: C_6  and  C_7
    4  A    between atoms: C_7  and  N_8
    5  A    between atoms: C_9  and  C_11
    6  A    between atoms: C_11  and  C_12
    7  A    between atoms: C_12  and  C_13
    8  A    between atoms: C_13  and  N_14
    9  A    between atoms: N_14  and  S_15
   10  A    between atoms: S_15  and  C_18
   11  A    between atoms: C_21  and  C_22
   12  A    between atoms: C_28  and  O_29
   13  A    between atoms: O_29  and  C_30
                            x       y       z     vdW  Elec       q    Type
                         _______ _______ _______ _____ _____    ______ ____

>  <TORSDO>
F 11

>  <SCORE>
-7.251

>  <RMSD_LB>
0.000

>  <RMSD_UB>
0.000

$$$$
CHEMBL2221182
 OpenBabel10172500213D

 36 37  0  0  0  0  0  0  0  0999 V2000
  148.4250  141.3110  152.8390 C   0  0  0  0  0  2  0  0  0  0  0  0
  147.8700  141.0630  151.5000 N   0  0  0  0  0  0  0  0  0  0  0  0
  147.4270  140.1450  151.5150 H   0  0  0  0  0  0  0  0  0  0  0  0
  146.7260  142.1730  150.9290 S   0  0  0  0  0  0  0  0  0  0  0  0
  146.0260  142.6620  152.0940 O   0  0  0  0  0  0  0  0  0  0  0  0
  147.3800  143.0670  150.0030 O   0  0  0  0  0  0  0  0  0  0  0  0
  145.6010  141.1340  150.0310 C   0  0  0  0  0  0  0  0  0  0  0  0
  145.9960  140.6040  148.8000 C   0  0  0  0  0  3  0  0  0  0  0  0
  145.1210  139.7760  148.0940 C   0  0  0  0  0  3  0  0  0  0  0  0
  143.8570  139.4710  148.6240 C   0  0  0  0  0  0  0  0  0  0  0  0
  143.4760  139.9970  149.8660 C   0  0  0  0  0  3  0  0  0  0  0  0
  144.3500  140.8250  150.5740 C   0  0  0  0  0  3  0  0  0  0  0  0
  142.9240  138.6090  147.8460 C   0  0  0  0  0  0  0  0  0  0  0  0
  142.5360  138.8880  146.6440 N   0  0  0  0  0  4  0  0  0  0  0  0
  142.4420  137.4540  148.3860 N   0  0  0  0  0  0  0  0  0  0  0  0
  142.8530  139.7100  146.2040 H   0  0  0  0  0  0  0  0  0  0  0  0
  141.9250  138.2810  146.1690 H   0  0  0  0  0  0  0  0  0  0  0  0
  142.7030  137.1890  149.2980 H   0  0  0  0  0  0  0  0  0  0  0  0
  141.8320  136.8830  147.8650 H   0  0  0  0  0  0  0  0  0  0  0  0
  148.3380  140.0340  153.6800 C   0  0  0  0  0  2  0  0  0  0  0  0
  146.9490  139.8370  154.2910 C   0  0  0  0  0  2  0  0  0  0  0  0
  145.2110  138.1340  154.3360 N   0  0  0  0  0  0  0  0  0  0  0  0
  146.1630  138.7610  153.5690 C   0  0  0  0  0  0  0  0  0  0  0  0
  146.4290  138.4410  152.4140 O   0  0  0  0  0  0  0  0  0  0  0  0
  145.0590  138.4440  155.2580 H   0  0  0  0  0  0  0  0  0  0  0  0
  144.4220  137.0330  153.8270 C   0  0  0  0  0  2  0  0  0  0  0  0
  140.3480  138.1160  152.7900 C   0  0  0  0  0  0  0  0  0  0  0  0
  141.2420  137.6430  151.8180 C   0  0  0  0  0  3  0  0  0  0  0  0
  142.5580  137.3070  152.1520 C   0  0  0  0  0  3  0  0  0  0  0  0
  143.0170  137.4370  153.4660 C   0  0  0  0  0  0  0  0  0  0  0  0
  142.1350  137.9430  154.4310 C   0  0  0  0  0  3  0  0  0  0  0  0
  140.8050  138.2680  154.1100 C   0  0  0  0  0  0  0  0  0  0  0  0
  138.0940  137.4750  152.3660 C   0  0  0  0  0  1  0  0  0  0  0  0
  139.0700  138.5050  152.4920 O   0  0  0  0  0  0  0  0  0  0  0  0
  140.0950  138.7500  155.1820 O   0  0  0  0  0  0  0  0  0  0  0  0
  139.8470  137.8370  156.2450 C   0  0  0  0  0  1  0  0  0  0  0  0
  1 20  1  0  0  0  0
  2  3  1  0  0  0  0
  2  1  1  0  0  0  0
  4  2  1  0  0  0  0
  4  5  2  0  0  0  0
  6  4  2  0  0  0  0
  7 12  1  0  0  0  0
  7  4  1  0  0  0  0
  8  7  2  0  0  0  0
  9 10  2  0  0  0  0
  9  8  1  0  0  0  0
 10 11  1  0  0  0  0
 11 12  2  0  0  0  0
 13 15  1  0  0  0  0
 13 10  1  0  0  0  0
 14 13  2  0  0  0  0
 15 18  1  0  0  0  0
 16 14  1  0  0  0  0
 17 14  1  0  0  0  0
 19 15  1  0  0  0  0
 20 21  1  0  0  0  0
 22 25  1  0  0  0  0
 23 21  1  0  0  0  0
 23 22  1  0  0  0  0
 24 23  2  0  0  0  0
 26 22  1  0  0  0  0
 27 32  1  0  0  0  0
 28 29  1  0  0  0  0
 28 27  2  0  0  0  0
 29 30  2  0  0  0  0
 30 26  1  0  0  0  0
 30 31  1  0  0  0  0
 32 31  2  0  0  0  0
 32 35  1  0  0  0  0
 33 34  1  0  0  0  0
 34 27  1  0  0  0  0
 35 36  1  0  0  0  0
M  END
>  <MODEL>
2

>  <REMARK>
 VINA RESULT:    -7.121      5.375      8.063
 INTER + INTRA:         -13.045
 INTER:                 -10.942
 INTRA:                  -2.103
 UNBOUND:                -1.346
  Name = CHEMBL2221182
  13 active torsions:
  status: ('A' for Active; 'I' for Inactive)
    1  A    between atoms: C_1  and  O_2
    2  A    between atoms: O_2  and  C_3
    3  A    between atoms: C_6  and  C_7
    4  A    between atoms: C_7  and  N_8
    5  A    between atoms: C_9  and  C_11
    6  A    between atoms: C_11  and  C_12
    7  A    between atoms: C_12  and  C_13
    8  A    between atoms: C_13  and  N_14
    9  A    between atoms: N_14  and  S_15
   10  A    between atoms: S_15  and  C_18
   11  A    between atoms: C_21  and  C_22
   12  A    between atoms: C_28  and  O_29
   13  A    between atoms: O_29  and  C_30
                            x       y       z     vdW  Elec       q    Type
                         _______ _______ _______ _____ _____    ______ ____

>  <TORSDO>
F 11

>  <SCORE>
-7.121

>  <RMSD_LB>
5.375

>  <RMSD_UB>
8.063

$$$$
CHEMBL2221182
 OpenBabel10172500213D

 36 37  0  0  0  0  0  0  0  0999 V2000
  140.5640  138.0310  155.6120 C   0  0  0  0  0  2  0  0  0  0  0  0
  139.2290  138.5690  155.3080 N   0  0  0  0  0  0  0  0  0  0  0  0
  139.1330  138.6000  154.2930 H   0  0  0  0  0  0  0  0  0  0  0  0
  137.9030  137.7120  155.9190 S   0  0  0  0  0  0  0  0  0  0  0  0
  138.4500  136.6560  156.7390 O   0  0  0  0  0  0  0  0  0  0  0  0
  136.9480  138.6620  156.4400 O   0  0  0  0  0  0  0  0  0  0  0  0
  137.2300  136.9580  154.4600 C   0  0  0  0  0  0  0  0  0  0  0  0
  136.2380  135.9840  154.5920 C   0  0  0  0  0  3  0  0  0  0  0  0
  135.6950  135.3950  153.4480 C   0  0  0  0  0  3  0  0  0  0  0  0
  136.1380  135.7870  152.1750 C   0  0  0  0  0  0  0  0  0  0  0  0
  137.1240  136.7750  152.0540 C   0  0  0  0  0  3  0  0  0  0  0  0
  137.6680  137.3660  153.1960 C   0  0  0  0  0  3  0  0  0  0  0  0
  135.5690  135.1300  150.9650 C   0  0  0  0  0  0  0  0  0  0  0  0
  135.0190  133.9590  150.9870 N   0  0  0  0  0  0  0  0  0  0  0  0
  135.5980  135.7640  149.7590 N   0  0  0  0  0  4  0  0  0  0  0  0
  134.9690  133.4540  151.8320 H   0  0  0  0  0  0  0  0  0  0  0  0
  134.6500  133.5720  150.1610 H   0  0  0  0  0  0  0  0  0  0  0  0
  136.0040  136.6580  149.6820 H   0  0  0  0  0  0  0  0  0  0  0  0
  135.2130  135.3290  148.9640 H   0  0  0  0  0  0  0  0  0  0  0  0
  141.5000  138.2650  154.4230 C   0  0  0  0  0  2  0  0  0  0  0  0
  140.8330  137.9310  153.0860 C   0  0  0  0  0  2  0  0  0  0  0  0
  142.6630  139.1330  152.0240 N   0  0  0  0  0  0  0  0  0  0  0  0
  141.3240  138.8310  151.9700 C   0  0  0  0  0  0  0  0  0  0  0  0
  140.5500  139.3020  151.1420 O   0  0  0  0  0  0  0  0  0  0  0  0
  143.2190  138.7210  152.7240 H   0  0  0  0  0  0  0  0  0  0  0  0
  143.2810  140.0390  151.0810 C   0  0  0  0  0  2  0  0  0  0  0  0
  146.9300  141.8310  152.6040 C   0  0  0  0  0  0  0  0  0  0  0  0
  146.3610  142.2610  151.3950 C   0  0  0  0  0  3  0  0  0  0  0  0
  145.1930  141.6730  150.9010 C   0  0  0  0  0  3  0  0  0  0  0  0
  144.5630  140.6380  151.5980 C   0  0  0  0  0  0  0  0  0  0  0  0
  145.1500  140.1840  152.7870 C   0  0  0  0  0  3  0  0  0  0  0  0
  146.3150  140.7800  153.3030 C   0  0  0  0  0  0  0  0  0  0  0  0
  149.2970  142.0050  152.3980 C   0  0  0  0  0  1  0  0  0  0  0  0
  148.1010  142.3460  153.0930 O   0  0  0  0  0  0  0  0  0  0  0  0
  146.7420  140.2000  154.4720 O   0  0  0  0  0  0  0  0  0  0  0  0
  147.1680  138.8450  154.3950 C   0  0  0  0  0  1  0  0  0  0  0  0
  2  1  1  0  0  0  0
  2  4  1  0  0  0  0
  3  2  1  0  0  0  0
  4  6  2  0  0  0  0
  4  5  2  0  0  0  0
  7  8  1  0  0  0  0
  7  4  1  0  0  0  0
  9  8  2  0  0  0  0
 10  9  1  0  0  0  0
 11 10  2  0  0  0  0
 11 12  1  0  0  0  0
 12  7  2  0  0  0  0
 13 14  1  0  0  0  0
 13 10  1  0  0  0  0
 14 16  1  0  0  0  0
 15 13  2  0  0  0  0
 17 14  1  0  0  0  0
 18 15  1  0  0  0  0
 19 15  1  0  0  0  0
 20  1  1  0  0  0  0
 21 20  1  0  0  0  0
 22 25  1  0  0  0  0
 23 22  1  0  0  0  0
 23 21  1  0  0  0  0
 24 23  2  0  0  0  0
 26 30  1  0  0  0  0
 26 22  1  0  0  0  0
 27 34  1  0  0  0  0
 27 32  1  0  0  0  0
 28 27  2  0  0  0  0
 29 28  1  0  0  0  0
 29 30  2  0  0  0  0
 30 31  1  0  0  0  0
 31 32  2  0  0  0  0
 32 35  1  0  0  0  0
 33 34  1  0  0  0  0
 36 35  1  0  0  0  0
M  END
>  <MODEL>
3

>  <REMARK>
 VINA RESULT:    -7.120      4.406      8.326
 INTER + INTRA:         -13.045
 INTER:                 -12.119
 INTRA:                  -0.926
 UNBOUND:                -1.346
  Name = CHEMBL2221182
  13 active torsions:
  status: ('A' for Active; 'I' for Inactive)
    1  A    between atoms: C_1  and  O_2
    2  A    between atoms: O_2  and  C_3
    3  A    between atoms: C_6  and  C_7
    4  A    between atoms: C_7  and  N_8
    5  A    between atoms: C_9  and  C_11
    6  A    between atoms: C_11  and  C_12
    7  A    between atoms: C_12  and  C_13
    8  A    between atoms: C_13  and  N_14
    9  A    between atoms: N_14  and  S_15
   10  A    between atoms: S_15  and  C_18
   11  A    between atoms: C_21  and  C_22
   12  A    between atoms: C_28  and  O_29
   13  A    between atoms: O_29  and  C_30
                            x       y       z     vdW  Elec       q    Type
                         _______ _______ _______ _____ _____    ______ ____

>  <TORSDO>
F 11

>  <SCORE>
-7.120

>  <RMSD_LB>
4.406

>  <RMSD_UB>
8.326

$$$$
CHEMBL2221182
 OpenBabel10172500213D

 36 37  0  0  0  0  0  0  0  0999 V2000
  146.2930  139.9300  147.9810 C   0  0  0  0  0  2  0  0  0  0  0  0
  146.6820  140.8040  149.0980 N   0  0  0  0  0  0  0  0  0  0  0  0
  147.0190  141.6800  148.7000 H   0  0  0  0  0  0  0  0  0  0  0  0
  145.4790  141.1840  150.2260 S   0  0  0  0  0  0  0  0  0  0  0  0
  145.5770  142.6070  150.4540 O   0  0  0  0  0  0  0  0  0  0  0  0
  144.2450  140.5650  149.8030 O   0  0  0  0  0  0  0  0  0  0  0  0
  146.0590  140.3700  151.6930 C   0  0  0  0  0  0  0  0  0  0  0  0
  145.1750  140.1670  152.7550 C   0  0  0  0  0  3  0  0  0  0  0  0
  145.6220  139.5160  153.9080 C   0  0  0  0  0  3  0  0  0  0  0  0
  146.9470  139.0610  153.9910 C   0  0  0  0  0  0  0  0  0  0  0  0
  147.8220  139.2570  152.9140 C   0  0  0  0  0  3  0  0  0  0  0  0
  147.3770  139.9080  151.7610 C   0  0  0  0  0  3  0  0  0  0  0  0
  147.4170  138.3930  155.2380 C   0  0  0  0  0  0  0  0  0  0  0  0
  148.1600  137.3340  155.2380 N   0  0  0  0  0  4  0  0  0  0  0  0
  147.0790  138.8980  156.4580 N   0  0  0  0  0  0  0  0  0  0  0  0
  148.4350  136.9260  154.3840 H   0  0  0  0  0  0  0  0  0  0  0  0
  148.4510  136.9360  156.0890 H   0  0  0  0  0  0  0  0  0  0  0  0
  146.5150  139.7030  156.5200 H   0  0  0  0  0  0  0  0  0  0  0  0
  147.3990  138.4580  157.2790 H   0  0  0  0  0  0  0  0  0  0  0  0
  146.7360  138.4920  148.2690 C   0  0  0  0  0  2  0  0  0  0  0  0
  145.6970  137.4640  147.8140 C   0  0  0  0  0  2  0  0  0  0  0  0
  144.7940  137.4790  150.0730 N   0  0  0  0  0  0  0  0  0  0  0  0
  145.1070  136.7030  148.9840 C   0  0  0  0  0  0  0  0  0  0  0  0
  145.0010  135.4810  148.9630 O   0  0  0  0  0  0  0  0  0  0  0  0
  144.9130  138.4550  150.0160 H   0  0  0  0  0  0  0  0  0  0  0  0
  144.2920  136.9050  151.3030 C   0  0  0  0  0  2  0  0  0  0  0  0
  140.1150  137.8150  152.0630 C   0  0  0  0  0  0  0  0  0  0  0  0
  140.5440  137.3790  150.8000 C   0  0  0  0  0  3  0  0  0  0  0  0
  141.8920  137.0990  150.5550 C   0  0  0  0  0  3  0  0  0  0  0  0
  142.8490  137.2490  151.5630 C   0  0  0  0  0  0  0  0  0  0  0  0
  142.4270  137.7190  152.8140 C   0  0  0  0  0  3  0  0  0  0  0  0
  141.0710  137.9870  153.0780 C   0  0  0  0  0  0  0  0  0  0  0  0
  137.8130  137.2200  151.9200 C   0  0  0  0  0  1  0  0  0  0  0  0
  138.8140  138.1490  152.3270 O   0  0  0  0  0  0  0  0  0  0  0  0
  140.8520  138.4390  154.3560 O   0  0  0  0  0  0  0  0  0  0  0  0
  141.8620  139.2640  154.9230 C   0  0  0  0  0  1  0  0  0  0  0  0
  1 20  1  0  0  0  0
  1  2  1  0  0  0  0
  2  4  1  0  0  0  0
  3  2  1  0  0  0  0
  4  5  2  0  0  0  0
  4  7  1  0  0  0  0
  6  4  2  0  0  0  0
  7 12  2  0  0  0  0
  7  8  1  0  0  0  0
  8  9  2  0  0  0  0
  9 10  1  0  0  0  0
 10 13  1  0  0  0  0
 11 10  2  0  0  0  0
 12 11  1  0  0  0  0
 13 15  1  0  0  0  0
 14 13  2  0  0  0  0
 14 17  1  0  0  0  0
 15 18  1  0  0  0  0
 15 19  1  0  0  0  0
 16 14  1  0  0  0  0
 21 20  1  0  0  0  0
 21 23  1  0  0  0  0
 22 26  1  0  0  0  0
 23 22  1  0  0  0  0
 24 23  2  0  0  0  0
 25 22  1  0  0  0  0
 26 30  1  0  0  0  0
 27 34  1  0  0  0  0
 27 32  1  0  0  0  0
 28 27  2  0  0  0  0
 29 28  1  0  0  0  0
 29 30  2  0  0  0  0
 30 31  1  0  0  0  0
 31 32  2  0  0  0  0
 32 35  1  0  0  0  0
 33 34  1  0  0  0  0
 35 36  1  0  0  0  0
M  END
>  <MODEL>
4

>  <REMARK>
 VINA RESULT:    -6.930      5.438      9.361
 INTER + INTRA:         -12.732
 INTER:                 -10.447
 INTRA:                  -2.285
 UNBOUND:                -1.346
  Name = CHEMBL2221182
  13 active torsions:
  status: ('A' for Active; 'I' for Inactive)
    1  A    between atoms: C_1  and  O_2
    2  A    between atoms: O_2  and  C_3
    3  A    between atoms: C_6  and  C_7
    4  A    between atoms: C_7  and  N_8
    5  A    between atoms: C_9  and  C_11
    6  A    between atoms: C_11  and  C_12
    7  A    between atoms: C_12  and  C_13
    8  A    between atoms: C_13  and  N_14
    9  A    between atoms: N_14  and  S_15
   10  A    between atoms: S_15  and  C_18
   11  A    between atoms: C_21  and  C_22
   12  A    between atoms: C_28  and  O_29
   13  A    between atoms: O_29  and  C_30
                            x       y       z     vdW  Elec       q    Type
                         _______ _______ _______ _____ _____    ______ ____

>  <TORSDO>
F 11

>  <SCORE>
-6.930

>  <RMSD_LB>
5.438

>  <RMSD_UB>
9.361

$$$$
CHEMBL2221182
 OpenBabel10172500213D

 36 37  0  0  0  0  0  0  0  0999 V2000
  138.5040  138.4250  147.7410 C   0  0  0  0  0  2  0  0  0  0  0  0
  139.8270  137.8010  147.9000 N   0  0  0  0  0  0  0  0  0  0  0  0
  140.4450  138.4930  148.3230 H   0  0  0  0  0  0  0  0  0  0  0  0
  139.9020  136.4010  148.8480 S   0  0  0  0  0  0  0  0  0  0  0  0
  138.5350  135.9800  149.0520 O   0  0  0  0  0  0  0  0  0  0  0  0
  140.8930  135.5180  148.2790 O   0  0  0  0  0  0  0  0  0  0  0  0
  140.5040  137.0210  150.3990 C   0  0  0  0  0  0  0  0  0  0  0  0
  139.5900  137.4830  151.3490 C   0  0  0  0  0  3  0  0  0  0  0  0
  140.0560  137.9610  152.5760 C   0  0  0  0  0  3  0  0  0  0  0  0
  141.4310  137.9670  152.8540 C   0  0  0  0  0  0  0  0  0  0  0  0
  142.3380  137.4880  151.8990 C   0  0  0  0  0  3  0  0  0  0  0  0
  141.8750  137.0090  150.6710 C   0  0  0  0  0  3  0  0  0  0  0  0
  141.9150  138.5050  154.1560 C   0  0  0  0  0  0  0  0  0  0  0  0
  142.6790  139.5450  154.2540 N   0  0  0  0  0  4  0  0  0  0  0  0
  141.5460  137.9110  155.3270 N   0  0  0  0  0  0  0  0  0  0  0  0
  142.9760  140.0150  153.4410 H   0  0  0  0  0  0  0  0  0  0  0  0
  142.9640  139.8660  155.1400 H   0  0  0  0  0  0  0  0  0  0  0  0
  140.9650  137.1160  155.3140 H   0  0  0  0  0  0  0  0  0  0  0  0
  141.8620  138.2760  156.1860 H   0  0  0  0  0  0  0  0  0  0  0  0
  137.9860  138.1860  146.3200 C   0  0  0  0  0  2  0  0  0  0  0  0
  136.6260  138.8460  146.0810 C   0  0  0  0  0  2  0  0  0  0  0  0
  134.3000  138.2610  146.4970 N   0  0  0  0  0  0  0  0  0  0  0  0
  135.5080  137.8250  146.0070 C   0  0  0  0  0  0  0  0  0  0  0  0
  135.7120  136.6820  145.6110 O   0  0  0  0  0  0  0  0  0  0  0  0
  134.2170  139.1930  146.8040 H   0  0  0  0  0  0  0  0  0  0  0  0
  133.1470  137.3910  146.5720 C   0  0  0  0  0  2  0  0  0  0  0  0
  132.9740  135.0180  150.2030 C   0  0  0  0  0  0  0  0  0  0  0  0
  132.7840  136.4080  150.2360 C   0  0  0  0  0  3  0  0  0  0  0  0
  132.8530  137.1710  149.0660 C   0  0  0  0  0  3  0  0  0  0  0  0
  133.1160  136.5680  147.8330 C   0  0  0  0  0  0  0  0  0  0  0  0
  133.3410  135.1850  147.8050 C   0  0  0  0  0  3  0  0  0  0  0  0
  133.2570  134.4040  148.9720 C   0  0  0  0  0  0  0  0  0  0  0  0
  133.4210  134.8550  152.5370 C   0  0  0  0  0  1  0  0  0  0  0  0
  132.9660  134.2450  151.3330 O   0  0  0  0  0  0  0  0  0  0  0  0
  133.5100  133.0730  148.7480 O   0  0  0  0  0  0  0  0  0  0  0  0
  134.5740  132.7670  147.8540 C   0  0  0  0  0  1  0  0  0  0  0  0
  1  2  1  0  0  0  0
  2  3  1  0  0  0  0
  2  4  1  0  0  0  0
  4  5  2  0  0  0  0
  4  7  1  0  0  0  0
  6  4  2  0  0  0  0
  7 12  2  0  0  0  0
  7  8  1  0  0  0  0
  8  9  2  0  0  0  0
  9 10  1  0  0  0  0
 10 13  1  0  0  0  0
 11 10  2  0  0  0  0
 12 11  1  0  0  0  0
 13 14  2  0  0  0  0
 13 15  1  0  0  0  0
 14 17  1  0  0  0  0
 15 19  1  0  0  0  0
 16 14  1  0  0  0  0
 18 15  1  0  0  0  0
 20  1  1  0  0  0  0
 21 20  1  0  0  0  0
 22 26  1  0  0  0  0
 22 25  1  0  0  0  0
 23 21  1  0  0  0  0
 23 22  1  0  0  0  0
 24 23  2  0  0  0  0
 26 30  1  0  0  0  0
 27 28  1  0  0  0  0
 27 34  1  0  0  0  0
 29 28  2  0  0  0  0
 30 29  1  0  0  0  0
 31 30  2  0  0  0  0
 31 32  1  0  0  0  0
 32 27  2  0  0  0  0
 34 33  1  0  0  0  0
 35 32  1  0  0  0  0
 36 35  1  0  0  0  0
M  END
>  <MODEL>
5

>  <REMARK>
 VINA RESULT:    -6.918      3.935      7.738
 INTER + INTRA:         -12.713
 INTER:                 -11.660
 INTRA:                  -1.053
 UNBOUND:                -1.346
  Name = CHEMBL2221182
  13 active torsions:
  status: ('A' for Active; 'I' for Inactive)
    1  A    between atoms: C_1  and  O_2
    2  A    between atoms: O_2  and  C_3
    3  A    between atoms: C_6  and  C_7
    4  A    between atoms: C_7  and  N_8
    5  A    between atoms: C_9  and  C_11
    6  A    between atoms: C_11  and  C_12
    7  A    between atoms: C_12  and  C_13
    8  A    between atoms: C_13  and  N_14
    9  A    between atoms: N_14  and  S_15
   10  A    between atoms: S_15  and  C_18
   11  A    between atoms: C_21  and  C_22
   12  A    between atoms: C_28  and  O_29
   13  A    between atoms: O_29  and  C_30
                            x       y       z     vdW  Elec       q    Type
                         _______ _______ _______ _____ _____    ______ ____

>  <TORSDO>
F 11

>  <SCORE>
-6.918

>  <RMSD_LB>
3.935

>  <RMSD_UB>
7.738

$$$$
CHEMBL2221182
 OpenBabel10172500213D

 36 37  0  0  0  0  0  0  0  0999 V2000
  144.3770  137.0680  148.7120 C   0  0  0  0  0  2  0  0  0  0  0  0
  145.5690  137.8330  148.3140 N   0  0  0  0  0  0  0  0  0  0  0  0
  145.8570  137.4980  147.3950 H   0  0  0  0  0  0  0  0  0  0  0  0
  145.3990  139.5140  148.2140 S   0  0  0  0  0  0  0  0  0  0  0  0
  146.5110  139.9830  147.4190 O   0  0  0  0  0  0  0  0  0  0  0  0
  144.0310  139.8150  147.8610 O   0  0  0  0  0  0  0  0  0  0  0  0
  145.6900  140.0280  149.8880 C   0  0  0  0  0  0  0  0  0  0  0  0
  146.9790  139.9300  150.4170 C   0  0  0  0  0  3  0  0  0  0  0  0
  147.2170  140.3440  151.7300 C   0  0  0  0  0  3  0  0  0  0  0  0
  146.1690  140.8640  152.5060 C   0  0  0  0  0  0  0  0  0  0  0  0
  144.8830  140.9700  151.9610 C   0  0  0  0  0  3  0  0  0  0  0  0
  144.6420  140.5570  150.6490 C   0  0  0  0  0  3  0  0  0  0  0  0
  146.4330  141.2750  153.9140 C   0  0  0  0  0  0  0  0  0  0  0  0
  145.8320  142.2670  154.4870 N   0  0  0  0  0  4  0  0  0  0  0  0
  147.3360  140.5930  154.6730 N   0  0  0  0  0  0  0  0  0  0  0  0
  145.1680  142.7960  153.9860 H   0  0  0  0  0  0  0  0  0  0  0  0
  146.0350  142.4930  155.4230 H   0  0  0  0  0  0  0  0  0  0  0  0
  147.8250  139.8280  154.2900 H   0  0  0  0  0  0  0  0  0  0  0  0
  147.5010  140.8630  155.6050 H   0  0  0  0  0  0  0  0  0  0  0  0
  144.7660  136.0010  149.7390 C   0  0  0  0  0  2  0  0  0  0  0  0
  146.0410  136.3680  150.5010 C   0  0  0  0  0  2  0  0  0  0  0  0
  144.4630  137.1750  152.1680 N   0  0  0  0  0  0  0  0  0  0  0  0
  145.7500  136.7520  151.9380 C   0  0  0  0  0  0  0  0  0  0  0  0
  146.6310  136.7510  152.7910 O   0  0  0  0  0  0  0  0  0  0  0  0
  143.8120  137.1540  151.4290 H   0  0  0  0  0  0  0  0  0  0  0  0
  144.0350  137.6510  153.4660 C   0  0  0  0  0  2  0  0  0  0  0  0
  139.7560  138.3390  153.7230 C   0  0  0  0  0  0  0  0  0  0  0  0
  140.5420  138.2230  154.8790 C   0  0  0  0  0  3  0  0  0  0  0  0
  141.9180  137.9890  154.7930 C   0  0  0  0  0  3  0  0  0  0  0  0
  142.5460  137.8610  153.5510 C   0  0  0  0  0  0  0  0  0  0  0  0
  141.7560  137.9410  152.3960 C   0  0  0  0  0  3  0  0  0  0  0  0
  140.3740  138.1940  152.4690 C   0  0  0  0  0  0  0  0  0  0  0  0
  137.7430  138.1810  154.9850 C   0  0  0  0  0  1  0  0  0  0  0  0
  138.3990  138.5160  153.7660 O   0  0  0  0  0  0  0  0  0  0  0  0
  139.7690  138.2360  151.2370 O   0  0  0  0  0  0  0  0  0  0  0  0
  140.0020  137.1290  150.3740 C   0  0  0  0  0  1  0  0  0  0  0  0
  1 20  1  0  0  0  0
  2  1  1  0  0  0  0
  3  2  1  0  0  0  0
  4  2  1  0  0  0  0
  4  7  1  0  0  0  0
  5  4  2  0  0  0  0
  6  4  2  0  0  0  0
  7  8  2  0  0  0  0
  7 12  1  0  0  0  0
  8  9  1  0  0  0  0
  9 10  2  0  0  0  0
 10 13  1  0  0  0  0
 11 10  1  0  0  0  0
 12 11  2  0  0  0  0
 13 14  2  0  0  0  0
 13 15  1  0  0  0  0
 14 17  1  0  0  0  0
 15 19  1  0  0  0  0
 16 14  1  0  0  0  0
 18 15  1  0  0  0  0
 20 21  1  0  0  0  0
 21 23  1  0  0  0  0
 22 26  1  0  0  0  0
 23 22  1  0  0  0  0
 23 24  2  0  0  0  0
 25 22  1  0  0  0  0
 26 30  1  0  0  0  0
 27 34  1  0  0  0  0
 27 28  1  0  0  0  0
 29 28  2  0  0  0  0
 30 29  1  0  0  0  0
 31 32  1  0  0  0  0
 31 30  2  0  0  0  0
 32 27  2  0  0  0  0
 34 33  1  0  0  0  0
 35 32  1  0  0  0  0
 36 35  1  0  0  0  0
M  END
>  <MODEL>
6

>  <REMARK>
 VINA RESULT:    -6.874      5.135      8.881
 INTER + INTRA:         -12.640
 INTER:                 -10.451
 INTRA:                  -2.190
 UNBOUND:                -1.346
  Name = CHEMBL2221182
  13 active torsions:
  status: ('A' for Active; 'I' for Inactive)
    1  A    between atoms: C_1  and  O_2
    2  A    between atoms: O_2  and  C_3
    3  A    between atoms: C_6  and  C_7
    4  A    between atoms: C_7  and  N_8
    5  A    between atoms: C_9  and  C_11
    6  A    between atoms: C_11  and  C_12
    7  A    between atoms: C_12  and  C_13
    8  A    between atoms: C_13  and  N_14
    9  A    between atoms: N_14  and  S_15
   10  A    between atoms: S_15  and  C_18
   11  A    between atoms: C_21  and  C_22
   12  A    between atoms: C_28  and  O_29
   13  A    between atoms: O_29  and  C_30
                            x       y       z     vdW  Elec       q    Type
                         _______ _______ _______ _____ _____    ______ ____

>  <TORSDO>
F 11

>  <SCORE>
-6.874

>  <RMSD_LB>
5.135

>  <RMSD_UB>
8.881

$$$$
CHEMBL2221182
 OpenBabel10172500213D

 36 37  0  0  0  0  0  0  0  0999 V2000
  142.1360  136.3740  147.8750 C   0  0  0  0  0  2  0  0  0  0  0  0
  140.7030  136.4680  148.1920 N   0  0  0  0  0  0  0  0  0  0  0  0
  140.5230  135.8550  148.9870 H   0  0  0  0  0  0  0  0  0  0  0  0
  140.1060  138.0020  148.5850 S   0  0  0  0  0  0  0  0  0  0  0  0
  140.7960  138.9340  147.7230 O   0  0  0  0  0  0  0  0  0  0  0  0
  138.6650  137.9330  148.6320 O   0  0  0  0  0  0  0  0  0  0  0  0
  140.7260  138.2440  150.2310 C   0  0  0  0  0  0  0  0  0  0  0  0
  140.0880  137.6110  151.3000 C   0  0  0  0  0  3  0  0  0  0  0  0
  140.5780  137.7860  152.5960 C   0  0  0  0  0  3  0  0  0  0  0  0
  141.7100  138.5860  152.8190 C   0  0  0  0  0  0  0  0  0  0  0  0
  142.3500  139.2060  151.7390 C   0  0  0  0  0  3  0  0  0  0  0  0
  141.8620  139.0320  150.4410 C   0  0  0  0  0  3  0  0  0  0  0  0
  142.2040  138.7860  154.2110 C   0  0  0  0  0  0  0  0  0  0  0  0
  142.8990  139.8150  154.5750 N   0  0  0  0  0  4  0  0  0  0  0  0
  141.9210  137.8710  155.1800 N   0  0  0  0  0  0  0  0  0  0  0  0
  143.1330  140.5090  153.9160 H   0  0  0  0  0  0  0  0  0  0  0  0
  143.1940  139.9050  155.5090 H   0  0  0  0  0  0  0  0  0  0  0  0
  141.3950  137.0680  154.9620 H   0  0  0  0  0  0  0  0  0  0  0  0
  142.2430  138.0120  156.1000 H   0  0  0  0  0  0  0  0  0  0  0  0
  142.8290  135.4470  148.8780 C   0  0  0  0  0  2  0  0  0  0  0  0
  144.0610  134.7640  148.2800 C   0  0  0  0  0  2  0  0  0  0  0  0
  145.7500  135.3790  149.9200 N   0  0  0  0  0  0  0  0  0  0  0  0
  145.3380  135.5070  148.6160 C   0  0  0  0  0  0  0  0  0  0  0  0
  145.8970  136.2230  147.7900 O   0  0  0  0  0  0  0  0  0  0  0  0
  145.2440  134.7900  150.5260 H   0  0  0  0  0  0  0  0  0  0  0  0
  146.9070  136.0830  150.4300 C   0  0  0  0  0  2  0  0  0  0  0  0
  145.7930  139.7750  152.4250 C   0  0  0  0  0  0  0  0  0  0  0  0
  146.1090  139.7560  151.0580 C   0  0  0  0  0  3  0  0  0  0  0  0
  146.4790  138.5680  150.4210 C   0  0  0  0  0  3  0  0  0  0  0  0
  146.5480  137.3660  151.1320 C   0  0  0  0  0  0  0  0  0  0  0  0
  146.2680  137.3900  152.5050 C   0  0  0  0  0  3  0  0  0  0  0  0
  145.8770  138.5760  153.1530 C   0  0  0  0  0  0  0  0  0  0  0  0
  146.5340  141.8560  153.3160 C   0  0  0  0  0  1  0  0  0  0  0  0
  145.4780  140.9260  153.0940 O   0  0  0  0  0  0  0  0  0  0  0  0
  145.6470  138.4040  154.4960 O   0  0  0  0  0  0  0  0  0  0  0  0
  146.7650  138.5620  155.3600 C   0  0  0  0  0  1  0  0  0  0  0  0
  1  2  1  0  0  0  0
  1 20  1  0  0  0  0
  2  4  1  0  0  0  0
  2  3  1  0  0  0  0
  4  6  2  0  0  0  0
  4  7  1  0  0  0  0
  5  4  2  0  0  0  0
  7 12  2  0  0  0  0
  7  8  1  0  0  0  0
  8  9  2  0  0  0  0
  9 10  1  0  0  0  0
 10 13  1  0  0  0  0
 11 10  2  0  0  0  0
 12 11  1  0  0  0  0
 13 14  2  0  0  0  0
 13 15  1  0  0  0  0
 14 17  1  0  0  0  0
 15 19  1  0  0  0  0
 16 14  1  0  0  0  0
 18 15  1  0  0  0  0
 21 23  1  0  0  0  0
 21 20  1  0  0  0  0
 22 26  1  0  0  0  0
 22 25  1  0  0  0  0
 23 22  1  0  0  0  0
 24 23  2  0  0  0  0
 26 30  1  0  0  0  0
 27 34  1  0  0  0  0
 27 32  1  0  0  0  0
 28 27  2  0  0  0  0
 29 28  1  0  0  0  0
 29 30  2  0  0  0  0
 30 31  1  0  0  0  0
 31 32  2  0  0  0  0
 32 35  1  0  0  0  0
 34 33  1  0  0  0  0
 35 36  1  0  0  0  0
M  END
>  <MODEL>
7

>  <REMARK>
 VINA RESULT:    -6.807      5.480      8.974
 INTER + INTRA:         -12.530
 INTER:                  -9.942
 INTRA:                  -2.588
 UNBOUND:                -1.346
  Name = CHEMBL2221182
  13 active torsions:
  status: ('A' for Active; 'I' for Inactive)
    1  A    between atoms: C_1  and  O_2
    2  A    between atoms: O_2  and  C_3
    3  A    between atoms: C_6  and  C_7
    4  A    between atoms: C_7  and  N_8
    5  A    between atoms: C_9  and  C_11
    6  A    between atoms: C_11  and  C_12
    7  A    between atoms: C_12  and  C_13
    8  A    between atoms: C_13  and  N_14
    9  A    between atoms: N_14  and  S_15
   10  A    between atoms: S_15  and  C_18
   11  A    between atoms: C_21  and  C_22
   12  A    between atoms: C_28  and  O_29
   13  A    between atoms: O_29  and  C_30
                            x       y       z     vdW  Elec       q    Type
                         _______ _______ _______ _____ _____    ______ ____

>  <TORSDO>
F 11

>  <SCORE>
-6.807

>  <RMSD_LB>
5.480

>  <RMSD_UB>
8.974

$$$$
CHEMBL2221182
 OpenBabel10172500213D

 36 37  0  0  0  0  0  0  0  0999 V2000
  143.5840  136.1360  149.1700 C   0  0  0  0  0  2  0  0  0  0  0  0
  142.7050  136.6320  148.1000 N   0  0  0  0  0  0  0  0  0  0  0  0
  142.0100  135.9090  147.9140 H   0  0  0  0  0  0  0  0  0  0  0  0
  141.8740  138.0750  148.4000 S   0  0  0  0  0  0  0  0  0  0  0  0
  142.5510  139.0950  147.6340 O   0  0  0  0  0  0  0  0  0  0  0  0
  140.4600  137.8260  148.2540 O   0  0  0  0  0  0  0  0  0  0  0  0
  142.2330  138.3740  150.1140 C   0  0  0  0  0  0  0  0  0  0  0  0
  142.9970  139.4880  150.4660 C   0  0  0  0  0  3  0  0  0  0  0  0
  143.2720  139.7350  151.8130 C   0  0  0  0  0  3  0  0  0  0  0  0
  142.7750  138.8750  152.8040 C   0  0  0  0  0  0  0  0  0  0  0  0
  141.9980  137.7670  152.4400 C   0  0  0  0  0  3  0  0  0  0  0  0
  141.7210  137.5170  151.0940 C   0  0  0  0  0  3  0  0  0  0  0  0
  143.1010  139.1360  154.2340 C   0  0  0  0  0  0  0  0  0  0  0  0
  144.2280  138.8070  154.7760 N   0  0  0  0  0  4  0  0  0  0  0  0
  142.1990  139.7620  155.0420 N   0  0  0  0  0  0  0  0  0  0  0  0
  144.9180  138.3520  154.2390 H   0  0  0  0  0  0  0  0  0  0  0  0
  144.3980  139.0100  155.7240 H   0  0  0  0  0  0  0  0  0  0  0  0
  141.3230  140.0360  154.6850 H   0  0  0  0  0  0  0  0  0  0  0  0
  142.4220  139.9400  155.9850 H   0  0  0  0  0  0  0  0  0  0  0  0
  145.0420  136.1740  148.7020 C   0  0  0  0  0  2  0  0  0  0  0  0
  145.1890  136.8050  147.3160 C   0  0  0  0  0  2  0  0  0  0  0  0
  145.7270  138.8810  148.4650 N   0  0  0  0  0  0  0  0  0  0  0  0
  145.9790  138.0980  147.3650 C   0  0  0  0  0  0  0  0  0  0  0  0
  146.7180  138.4300  146.4440 O   0  0  0  0  0  0  0  0  0  0  0  0
  145.1140  138.5480  149.1600 H   0  0  0  0  0  0  0  0  0  0  0  0
  146.3380  140.1820  148.6320 C   0  0  0  0  0  2  0  0  0  0  0  0
  147.1050  141.1470  152.7950 C   0  0  0  0  0  0  0  0  0  0  0  0
  147.0680  142.1490  151.8140 C   0  0  0  0  0  3  0  0  0  0  0  0
  146.8330  141.8340  150.4720 C   0  0  0  0  0  3  0  0  0  0  0  0
  146.6320  140.5090  150.0730 C   0  0  0  0  0  0  0  0  0  0  0  0
  146.7040  139.5040  151.0470 C   0  0  0  0  0  3  0  0  0  0  0  0
  146.9220  139.8110  152.4030 C   0  0  0  0  0  0  0  0  0  0  0  0
  148.6920  141.8870  154.4100 C   0  0  0  0  0  1  0  0  0  0  0  0
  147.3840  141.4100  154.1100 O   0  0  0  0  0  0  0  0  0  0  0  0
  146.9630  138.6980  153.2060 O   0  0  0  0  0  0  0  0  0  0  0  0
  148.1210  137.8780  153.1020 C   0  0  0  0  0  1  0  0  0  0  0  0
  2  4  1  0  0  0  0
  2  1  1  0  0  0  0
  3  2  1  0  0  0  0
  4  7  1  0  0  0  0
  5  4  2  0  0  0  0
  6  4  2  0  0  0  0
  7  8  2  0  0  0  0
  7 12  1  0  0  0  0
  8  9  1  0  0  0  0
  9 10  2  0  0  0  0
 10 13  1  0  0  0  0
 11 10  1  0  0  0  0
 12 11  2  0  0  0  0
 13 14  2  0  0  0  0
 13 15  1  0  0  0  0
 14 17  1  0  0  0  0
 15 19  1  0  0  0  0
 16 14  1  0  0  0  0
 18 15  1  0  0  0  0
 20  1  1  0  0  0  0
 21 23  1  0  0  0  0
 21 20  1  0  0  0  0
 22 26  1  0  0  0  0
 22 25  1  0  0  0  0
 23 22  1  0  0  0  0
 24 23  2  0  0  0  0
 26 30  1  0  0  0  0
 27 34  1  0  0  0  0
 28 27  2  0  0  0  0
 29 28  1  0  0  0  0
 30 29  2  0  0  0  0
 30 31  1  0  0  0  0
 31 32  2  0  0  0  0
 32 27  1  0  0  0  0
 32 35  1  0  0  0  0
 34 33  1  0  0  0  0
 36 35  1  0  0  0  0
M  END
>  <MODEL>
8

>  <REMARK>
 VINA RESULT:    -6.725      6.623     10.175
 INTER + INTRA:         -12.395
 INTER:                 -10.230
 INTRA:                  -2.165
 UNBOUND:                -1.346
  Name = CHEMBL2221182
  13 active torsions:
  status: ('A' for Active; 'I' for Inactive)
    1  A    between atoms: C_1  and  O_2
    2  A    between atoms: O_2  and  C_3
    3  A    between atoms: C_6  and  C_7
    4  A    between atoms: C_7  and  N_8
    5  A    between atoms: C_9  and  C_11
    6  A    between atoms: C_11  and  C_12
    7  A    between atoms: C_12  and  C_13
    8  A    between atoms: C_13  and  N_14
    9  A    between atoms: N_14  and  S_15
   10  A    between atoms: S_15  and  C_18
   11  A    between atoms: C_21  and  C_22
   12  A    between atoms: C_28  and  O_29
   13  A    between atoms: O_29  and  C_30
                            x       y       z     vdW  Elec       q    Type
                         _______ _______ _______ _____ _____    ______ ____

>  <TORSDO>
F 11

>  <SCORE>
-6.725

>  <RMSD_LB>
6.623

>  <RMSD_UB>
10.175

$$$$
CHEMBL2221182
 OpenBabel10172500213D

 36 37  0  0  0  0  0  0  0  0999 V2000
  135.0900  136.8320  147.9040 C   0  0  0  0  0  2  0  0  0  0  0  0
  135.7130  138.1490  147.7000 N   0  0  0  0  0  0  0  0  0  0  0  0
  135.5910  138.6840  148.5600 H   0  0  0  0  0  0  0  0  0  0  0  0
  137.3620  138.1640  147.3190 S   0  0  0  0  0  0  0  0  0  0  0  0
  137.6970  136.8120  146.9340 O   0  0  0  0  0  0  0  0  0  0  0  0
  137.6190  139.2880  146.4500 O   0  0  0  0  0  0  0  0  0  0  0  0
  138.1160  138.4690  148.8970 C   0  0  0  0  0  0  0  0  0  0  0  0
  138.6400  139.7350  149.1680 C   0  0  0  0  0  3  0  0  0  0  0  0
  139.2240  139.9860  150.4120 C   0  0  0  0  0  3  0  0  0  0  0  0
  139.2740  138.9750  151.3840 C   0  0  0  0  0  0  0  0  0  0  0  0
  138.7330  137.7130  151.1060 C   0  0  0  0  0  3  0  0  0  0  0  0
  138.1480  137.4590  149.8630 C   0  0  0  0  0  3  0  0  0  0  0  0
  139.9240  139.2500  152.6960 C   0  0  0  0  0  0  0  0  0  0  0  0
  141.1930  139.1040  152.9020 N   0  0  0  0  0  4  0  0  0  0  0  0
  139.1840  139.6890  153.7530 N   0  0  0  0  0  0  0  0  0  0  0  0
  141.7770  138.7900  152.1730 H   0  0  0  0  0  0  0  0  0  0  0  0
  141.5760  139.3080  153.7860 H   0  0  0  0  0  0  0  0  0  0  0  0
  138.2130  139.8190  153.6550 H   0  0  0  0  0  0  0  0  0  0  0  0
  139.6210  139.8770  154.6160 H   0  0  0  0  0  0  0  0  0  0  0  0
  133.5710  136.9460  147.7410 C   0  0  0  0  0  2  0  0  0  0  0  0
  132.9210  135.5970  147.4270 C   0  0  0  0  0  2  0  0  0  0  0  0
  133.0410  134.8020  149.7240 N   0  0  0  0  0  0  0  0  0  0  0  0
  133.3410  134.5240  148.4120 C   0  0  0  0  0  0  0  0  0  0  0  0
  133.9680  133.5340  148.0490 O   0  0  0  0  0  0  0  0  0  0  0  0
  132.5400  135.6220  149.9370 H   0  0  0  0  0  0  0  0  0  0  0  0
  133.4380  133.9220  150.8010 C   0  0  0  0  0  2  0  0  0  0  0  0
  135.4160  136.0850  154.0030 C   0  0  0  0  0  0  0  0  0  0  0  0
  135.9360  136.0840  152.7000 C   0  0  0  0  0  3  0  0  0  0  0  0
  135.3040  135.3760  151.6740 C   0  0  0  0  0  3  0  0  0  0  0  0
  134.1370  134.6470  151.9210 C   0  0  0  0  0  0  0  0  0  0  0  0
  133.6370  134.6180  153.2300 C   0  0  0  0  0  3  0  0  0  0  0  0
  134.2550  135.3410  154.2670 C   0  0  0  0  0  0  0  0  0  0  0  0
  137.4550  136.8190  154.9920 C   0  0  0  0  0  1  0  0  0  0  0  0
  136.0350  136.7230  155.0450 O   0  0  0  0  0  0  0  0  0  0  0  0
  133.6240  135.1890  155.4770 O   0  0  0  0  0  0  0  0  0  0  0  0
  134.3190  134.4460  156.4710 C   0  0  0  0  0  1  0  0  0  0  0  0
  2  1  1  0  0  0  0
  2  3  1  0  0  0  0
  4  2  1  0  0  0  0
  4  7  1  0  0  0  0
  5  4  2  0  0  0  0
  6  4  2  0  0  0  0
  7  8  2  0  0  0  0
  7 12  1  0  0  0  0
  8  9  1  0  0  0  0
  9 10  2  0  0  0  0
 10 13  1  0  0  0  0
 11 10  1  0  0  0  0
 12 11  2  0  0  0  0
 13 14  2  0  0  0  0
 13 15  1  0  0  0  0
 14 17  1  0  0  0  0
 15 19  1  0  0  0  0
 16 14  1  0  0  0  0
 18 15  1  0  0  0  0
 20  1  1  0  0  0  0
 21 20  1  0  0  0  0
 21 23  1  0  0  0  0
 22 25  1  0  0  0  0
 22 26  1  0  0  0  0
 23 22  1  0  0  0  0
 24 23  2  0  0  0  0
 26 30  1  0  0  0  0
 27 32  1  0  0  0  0
 27 34  1  0  0  0  0
 28 27  2  0  0  0  0
 29 30  2  0  0  0  0
 29 28  1  0  0  0  0
 30 31  1  0  0  0  0
 31 32  2  0  0  0  0
 32 35  1  0  0  0  0
 33 34  1  0  0  0  0
 35 36  1  0  0  0  0
M  END
>  <MODEL>
9

>  <REMARK>
 VINA RESULT:    -6.671      2.364      6.159
 INTER + INTRA:         -12.307
 INTER:                 -10.961
 INTRA:                  -1.346
 UNBOUND:                -1.346
  Name = CHEMBL2221182
  13 active torsions:
  status: ('A' for Active; 'I' for Inactive)
    1  A    between atoms: C_1  and  O_2
    2  A    between atoms: O_2  and  C_3
    3  A    between atoms: C_6  and  C_7
    4  A    between atoms: C_7  and  N_8
    5  A    between atoms: C_9  and  C_11
    6  A    between atoms: C_11  and  C_12
    7  A    between atoms: C_12  and  C_13
    8  A    between atoms: C_13  and  N_14
    9  A    between atoms: N_14  and  S_15
   10  A    between atoms: S_15  and  C_18
   11  A    between atoms: C_21  and  C_22
   12  A    between atoms: C_28  and  O_29
   13  A    between atoms: O_29  and  C_30
                            x       y       z     vdW  Elec       q    Type
                         _______ _______ _______ _____ _____    ______ ____

>  <TORSDO>
F 11

>  <SCORE>
-6.671

>  <RMSD_LB>
2.364

>  <RMSD_UB>
6.159

$$$$
