CHEMBL86638
 OpenBabel10172500063D

 26 26  0  0  0  0  0  0  0  0999 V2000
  137.4780  137.9950  155.5350 C   0  0  0  0  0  0  0  0  0  0  0  0
  136.9530  139.0890  155.3360 O   0  0  0  0  0  0  0  0  0  0  0  0
  138.7380  137.6820  155.0850 N   0  0  0  0  0  0  0  0  0  0  0  0
  139.1200  136.7970  155.2910 H   0  0  0  0  0  0  0  0  0  0  0  0
  136.8020  136.8840  156.3130 C   0  0  0  0  0  2  0  0  0  0  0  0
  136.4620  135.7170  155.3850 C   0  0  0  0  0  2  0  0  0  0  0  0
  134.9620  135.4780  155.2710 C   0  0  0  0  0  2  0  0  0  0  0  0
  134.6350  134.8050  153.9390 C   0  0  0  0  0  2  0  0  0  0  0  0
  134.0540  135.8050  152.9460 C   0  0  0  0  0  2  0  0  0  0  0  0
  134.9570  135.9430  151.7250 C   0  0  0  0  0  2  0  0  0  0  0  0
  135.6440  134.6180  151.4120 C   0  0  0  0  0  2  0  0  0  0  0  0
  135.2780  134.1340  150.0130 C   0  0  0  0  0  2  0  0  0  0  0  0
  134.1590  133.1000  150.0770 C   0  0  0  0  0  2  0  0  0  0  0  0
  132.8530  134.6710  148.6220 C   0  0  0  0  0  1  0  0  0  0  0  0
  132.8000  133.7470  149.8250 C   0  0  0  0  0  2  0  0  0  0  0  0
  139.5120  138.6320  154.3170 C   0  0  0  0  0  2  0  0  0  0  0  0
  139.9180  138.0830  152.9730 C   0  0  0  0  0  0  0  0  0  0  0  0
  141.2700  137.8870  152.6730 C   0  0  0  0  0  3  0  0  0  0  0  0
  141.6540  137.3650  151.4370 C   0  0  0  0  0  3  0  0  0  0  0  0
  140.6860  137.0390  150.4820 C   0  0  0  0  0  0  0  0  0  0  0  0
  139.3290  137.2430  150.7480 C   0  0  0  0  0  0  0  0  0  0  0  0
  138.9600  137.7680  151.9970 C   0  0  0  0  0  3  0  0  0  0  0  0
  141.1160  136.5220  149.2890 O   0  0  0  0  0  0  0  0  0  0  0  0
  141.9450  136.7810  148.9380 H   0  0  0  0  0  0  0  0  0  0  0  0
  138.2590  136.9890  149.9320 O   0  0  0  0  0  0  0  0  0  0  0  0
  137.3960  138.0740  149.6140 C   0  0  0  0  0  1  0  0  0  0  0  0
  1  5  1  0  0  0  0
  2  1  2  0  0  0  0
  3  4  1  0  0  0  0
  3  1  1  0  0  0  0
  6  5  1  0  0  0  0
  7  6  1  0  0  0  0
  8  7  1  0  0  0  0
  9  8  1  0  0  0  0
 10  9  1  0  0  0  0
 11 10  1  0  0  0  0
 12 13  1  0  0  0  0
 12 11  1  0  0  0  0
 14 15  1  0  0  0  0
 15 13  1  0  0  0  0
 16  3  1  0  0  0  0
 17 16  1  0  0  0  0
 18 17  1  0  0  0  0
 19 18  2  0  0  0  0
 20 21  2  0  0  0  0
 20 19  1  0  0  0  0
 21 22  1  0  0  0  0
 22 17  2  0  0  0  0
 23 20  1  0  0  0  0
 24 23  1  0  0  0  0
 25 21  1  0  0  0  0
 26 25  1  0  0  0  0
M  END
>  <MODEL>
1

>  <REMARK>
 VINA RESULT:    -6.330      0.000      0.000
 INTER + INTRA:         -12.686
 INTER:                 -11.010
 INTRA:                  -1.676
 UNBOUND:                -1.361
  Name = CHEMBL86638
  16 active torsions:
  status: ('A' for Active; 'I' for Inactive)
    1  A    between atoms: C_1  and  C_2
    2  A    between atoms: C_2  and  C_3
    3  A    between atoms: C_3  and  C_4
    4  A    between atoms: C_4  and  C_5
    5  A    between atoms: C_5  and  C_6
    6  A    between atoms: C_6  and  C_7
    7  A    between atoms: C_7  and  C_8
    8  A    between atoms: C_8  and  C_9
    9  A    between atoms: C_9  and  C_10
   10  A    between atoms: C_10  and  C_11
   11  A    between atoms: C_11  and  C_12
   12  A    between atoms: N_14  and  C_15
   13  A    between atoms: C_15  and  C_16
   14  A    between atoms: C_19  and  O_20
   15  A    between atoms: C_21  and  O_22
   16  A    between atoms: O_22  and  C_23
                            x       y       z     vdW  Elec       q    Type
                         _______ _______ _______ _____ _____    ______ ____

>  <TORSDO>
F 14

>  <SCORE>
-6.330

>  <RMSD_LB>
0.000

>  <RMSD_UB>
0.000

$$$$
CHEMBL86638
 OpenBabel10172500063D

 26 26  0  0  0  0  0  0  0  0999 V2000
  143.5090  139.2610  150.3940 C   0  0  0  0  0  0  0  0  0  0  0  0
  142.6030  139.6070  149.6370 O   0  0  0  0  0  0  0  0  0  0  0  0
  143.4190  138.1550  151.2050 N   0  0  0  0  0  0  0  0  0  0  0  0
  144.1830  137.9110  151.7780 H   0  0  0  0  0  0  0  0  0  0  0  0
  144.8260  140.0020  150.4980 C   0  0  0  0  0  2  0  0  0  0  0  0
  144.8600  140.8470  151.7720 C   0  0  0  0  0  2  0  0  0  0  0  0
  145.6970  142.1100  151.6150 C   0  0  0  0  0  2  0  0  0  0  0  0
  146.6040  142.2970  152.8320 C   0  0  0  0  0  2  0  0  0  0  0  0
  148.0190  141.8140  152.5420 C   0  0  0  0  0  2  0  0  0  0  0  0
  148.1960  140.3620  152.9750 C   0  0  0  0  0  2  0  0  0  0  0  0
  148.0490  140.2300  154.4870 C   0  0  0  0  0  2  0  0  0  0  0  0
  147.5710  138.8330  154.8670 C   0  0  0  0  0  2  0  0  0  0  0  0
  146.1430  138.6030  154.3830 C   0  0  0  0  0  2  0  0  0  0  0  0
  146.1990  136.6970  152.7540 C   0  0  0  0  0  1  0  0  0  0  0  0
  145.8660  137.1180  154.1740 C   0  0  0  0  0  2  0  0  0  0  0  0
  142.2210  137.3450  151.2300 C   0  0  0  0  0  2  0  0  0  0  0  0
  141.2660  137.7740  152.3150 C   0  0  0  0  0  0  0  0  0  0  0  0
  139.8870  137.7670  152.0790 C   0  0  0  0  0  3  0  0  0  0  0  0
  138.9940  138.1480  153.0820 C   0  0  0  0  0  3  0  0  0  0  0  0
  139.4730  138.5480  154.3330 C   0  0  0  0  0  0  0  0  0  0  0  0
  140.8460  138.5820  154.5890 C   0  0  0  0  0  0  0  0  0  0  0  0
  141.7310  138.1940  153.5700 C   0  0  0  0  0  3  0  0  0  0  0  0
  138.5540  138.9030  155.2830 O   0  0  0  0  0  0  0  0  0  0  0  0
  138.3810  138.3300  156.0050 H   0  0  0  0  0  0  0  0  0  0  0  0
  141.4830  138.9520  155.7440 O   0  0  0  0  0  0  0  0  0  0  0  0
  142.6620  139.7370  155.6290 C   0  0  0  0  0  1  0  0  0  0  0  0
  1  5  1  0  0  0  0
  1  3  1  0  0  0  0
  2  1  2  0  0  0  0
  3 16  1  0  0  0  0
  3  4  1  0  0  0  0
  5  6  1  0  0  0  0
  7  6  1  0  0  0  0
  7  8  1  0  0  0  0
  9  8  1  0  0  0  0
  9 10  1  0  0  0  0
 10 11  1  0  0  0  0
 11 12  1  0  0  0  0
 13 12  1  0  0  0  0
 14 15  1  0  0  0  0
 15 13  1  0  0  0  0
 16 17  1  0  0  0  0
 17 22  1  0  0  0  0
 18 17  2  0  0  0  0
 18 19  1  0  0  0  0
 19 20  2  0  0  0  0
 20 21  1  0  0  0  0
 20 23  1  0  0  0  0
 21 25  1  0  0  0  0
 22 21  2  0  0  0  0
 23 24  1  0  0  0  0
 26 25  1  0  0  0  0
M  END
>  <MODEL>
2

>  <REMARK>
 VINA RESULT:    -6.167      4.631     10.028
 INTER + INTRA:         -12.394
 INTER:                 -10.482
 INTRA:                  -1.912
 UNBOUND:                -1.361
  Name = CHEMBL86638
  16 active torsions:
  status: ('A' for Active; 'I' for Inactive)
    1  A    between atoms: C_1  and  C_2
    2  A    between atoms: C_2  and  C_3
    3  A    between atoms: C_3  and  C_4
    4  A    between atoms: C_4  and  C_5
    5  A    between atoms: C_5  and  C_6
    6  A    between atoms: C_6  and  C_7
    7  A    between atoms: C_7  and  C_8
    8  A    between atoms: C_8  and  C_9
    9  A    between atoms: C_9  and  C_10
   10  A    between atoms: C_10  and  C_11
   11  A    between atoms: C_11  and  C_12
   12  A    between atoms: N_14  and  C_15
   13  A    between atoms: C_15  and  C_16
   14  A    between atoms: C_19  and  O_20
   15  A    between atoms: C_21  and  O_22
   16  A    between atoms: O_22  and  C_23
                            x       y       z     vdW  Elec       q    Type
                         _______ _______ _______ _____ _____    ______ ____

>  <TORSDO>
F 14

>  <SCORE>
-6.167

>  <RMSD_LB>
4.631

>  <RMSD_UB>
10.028

$$$$
CHEMBL86638
 OpenBabel10172500063D

 26 26  0  0  0  0  0  0  0  0999 V2000
  137.6370  137.9410  155.8740 C   0  0  0  0  0  0  0  0  0  0  0  0
  136.9180  138.9230  155.6920 O   0  0  0  0  0  0  0  0  0  0  0  0
  138.8770  137.8080  155.2960 N   0  0  0  0  0  0  0  0  0  0  0  0
  139.4200  137.0110  155.4920 H   0  0  0  0  0  0  0  0  0  0  0  0
  137.2430  136.7840  156.7700 C   0  0  0  0  0  2  0  0  0  0  0  0
  136.0720  136.0140  156.1570 C   0  0  0  0  0  2  0  0  0  0  0  0
  136.2360  135.7930  154.6590 C   0  0  0  0  0  2  0  0  0  0  0  0
  135.2890  134.6930  154.1810 C   0  0  0  0  0  2  0  0  0  0  0  0
  133.9040  135.2520  153.8800 C   0  0  0  0  0  2  0  0  0  0  0  0
  133.5290  135.0140  152.4210 C   0  0  0  0  0  2  0  0  0  0  0  0
  134.3870  135.8730  151.4980 C   0  0  0  0  0  2  0  0  0  0  0  0
  135.1160  135.0080  150.4740 C   0  0  0  0  0  2  0  0  0  0  0  0
  136.6260  135.1670  150.6150 C   0  0  0  0  0  2  0  0  0  0  0  0
  137.4790  137.4550  150.0440 C   0  0  0  0  0  1  0  0  0  0  0  0
  136.9860  136.5470  151.1560 C   0  0  0  0  0  2  0  0  0  0  0  0
  139.3950  138.8240  154.4060 C   0  0  0  0  0  2  0  0  0  0  0  0
  140.5560  138.3230  153.5840 C   0  0  0  0  0  0  0  0  0  0  0  0
  140.3350  137.7800  152.3140 C   0  0  0  0  0  3  0  0  0  0  0  0
  141.4050  137.3270  151.5410 C   0  0  0  0  0  3  0  0  0  0  0  0
  142.7100  137.4060  152.0330 C   0  0  0  0  0  0  0  0  0  0  0  0
  142.9570  137.9260  153.3070 C   0  0  0  0  0  0  0  0  0  0  0  0
  141.8700  138.3780  154.0720 C   0  0  0  0  0  3  0  0  0  0  0  0
  143.7230  136.9550  151.2300 O   0  0  0  0  0  0  0  0  0  0  0  0
  143.5500  136.3090  150.5750 H   0  0  0  0  0  0  0  0  0  0  0  0
  144.1620  138.0680  153.9440 O   0  0  0  0  0  0  0  0  0  0  0  0
  144.4630  139.3350  154.5150 C   0  0  0  0  0  1  0  0  0  0  0  0
  1  5  1  0  0  0  0
  2  1  2  0  0  0  0
  3  4  1  0  0  0  0
  3  1  1  0  0  0  0
  6  5  1  0  0  0  0
  7  6  1  0  0  0  0
  8  7  1  0  0  0  0
  9  8  1  0  0  0  0
 10  9  1  0  0  0  0
 11 10  1  0  0  0  0
 12 13  1  0  0  0  0
 12 11  1  0  0  0  0
 13 15  1  0  0  0  0
 14 15  1  0  0  0  0
 16  3  1  0  0  0  0
 17 22  1  0  0  0  0
 17 16  1  0  0  0  0
 18 17  2  0  0  0  0
 19 20  2  0  0  0  0
 19 18  1  0  0  0  0
 20 21  1  0  0  0  0
 21 25  1  0  0  0  0
 21 22  2  0  0  0  0
 23 20  1  0  0  0  0
 24 23  1  0  0  0  0
 25 26  1  0  0  0  0
M  END
>  <MODEL>
3

>  <REMARK>
 VINA RESULT:    -6.075      1.849      3.306
 INTER + INTRA:         -12.231
 INTER:                 -10.700
 INTRA:                  -1.531
 UNBOUND:                -1.361
  Name = CHEMBL86638
  16 active torsions:
  status: ('A' for Active; 'I' for Inactive)
    1  A    between atoms: C_1  and  C_2
    2  A    between atoms: C_2  and  C_3
    3  A    between atoms: C_3  and  C_4
    4  A    between atoms: C_4  and  C_5
    5  A    between atoms: C_5  and  C_6
    6  A    between atoms: C_6  and  C_7
    7  A    between atoms: C_7  and  C_8
    8  A    between atoms: C_8  and  C_9
    9  A    between atoms: C_9  and  C_10
   10  A    between atoms: C_10  and  C_11
   11  A    between atoms: C_11  and  C_12
   12  A    between atoms: N_14  and  C_15
   13  A    between atoms: C_15  and  C_16
   14  A    between atoms: C_19  and  O_20
   15  A    between atoms: C_21  and  O_22
   16  A    between atoms: O_22  and  C_23
                            x       y       z     vdW  Elec       q    Type
                         _______ _______ _______ _____ _____    ______ ____

>  <TORSDO>
F 14

>  <SCORE>
-6.075

>  <RMSD_LB>
1.849

>  <RMSD_UB>
3.306

$$$$
CHEMBL86638
 OpenBabel10172500063D

 26 26  0  0  0  0  0  0  0  0999 V2000
  140.1990  138.0540  152.9120 C   0  0  0  0  0  0  0  0  0  0  0  0
  141.2750  138.1610  153.4980 O   0  0  0  0  0  0  0  0  0  0  0  0
  138.9890  138.2050  153.5450 N   0  0  0  0  0  0  0  0  0  0  0  0
  138.1560  138.1300  153.0240 H   0  0  0  0  0  0  0  0  0  0  0  0
  140.0920  137.7670  151.4280 C   0  0  0  0  0  2  0  0  0  0  0  0
  138.6390  137.8890  150.9680 C   0  0  0  0  0  2  0  0  0  0  0  0
  138.1080  136.5970  150.3600 C   0  0  0  0  0  2  0  0  0  0  0  0
  136.6770  136.7980  149.8620 C   0  0  0  0  0  2  0  0  0  0  0  0
  135.6640  136.2850  150.8780 C   0  0  0  0  0  2  0  0  0  0  0  0
  136.2620  135.1630  151.7200 C   0  0  0  0  0  2  0  0  0  0  0  0
  135.3420  133.9460  151.7250 C   0  0  0  0  0  2  0  0  0  0  0  0
  134.1970  134.1270  150.7340 C   0  0  0  0  0  2  0  0  0  0  0  0
  133.7960  132.7870  150.1250 C   0  0  0  0  0  2  0  0  0  0  0  0
  134.4570  134.1200  148.1060 C   0  0  0  0  0  1  0  0  0  0  0  0
  134.1390  132.7350  148.6400 C   0  0  0  0  0  2  0  0  0  0  0  0
  138.9200  138.4740  154.9650 C   0  0  0  0  0  2  0  0  0  0  0  0
  137.9580  137.5530  155.6730 C   0  0  0  0  0  0  0  0  0  0  0  0
  137.2020  136.6310  154.9410 C   0  0  0  0  0  3  0  0  0  0  0  0
  136.3200  135.7650  155.5890 C   0  0  0  0  0  3  0  0  0  0  0  0
  136.1790  135.8160  156.9790 C   0  0  0  0  0  0  0  0  0  0  0  0
  136.9080  136.7410  157.7320 C   0  0  0  0  0  0  0  0  0  0  0  0
  137.7920  137.6050  157.0650 C   0  0  0  0  0  3  0  0  0  0  0  0
  135.3070  134.9380  157.5650 O   0  0  0  0  0  0  0  0  0  0  0  0
  135.6030  134.0890  157.8290 H   0  0  0  0  0  0  0  0  0  0  0  0
  136.8870  136.9320  159.0880 O   0  0  0  0  0  0  0  0  0  0  0  0
  137.6210  138.0310  159.6140 C   0  0  0  0  0  1  0  0  0  0  0  0
  1  2  2  0  0  0  0
  1  3  1  0  0  0  0
  3 16  1  0  0  0  0
  4  3  1  0  0  0  0
  5  1  1  0  0  0  0
  6  5  1  0  0  0  0
  7  6  1  0  0  0  0
  8  7  1  0  0  0  0
  8  9  1  0  0  0  0
  9 10  1  0  0  0  0
 10 11  1  0  0  0  0
 12 11  1  0  0  0  0
 13 12  1  0  0  0  0
 14 15  1  0  0  0  0
 15 13  1  0  0  0  0
 16 17  1  0  0  0  0
 17 22  1  0  0  0  0
 18 19  1  0  0  0  0
 18 17  2  0  0  0  0
 19 20  2  0  0  0  0
 20 23  1  0  0  0  0
 20 21  1  0  0  0  0
 21 25  1  0  0  0  0
 22 21  2  0  0  0  0
 23 24  1  0  0  0  0
 25 26  1  0  0  0  0
M  END
>  <MODEL>
4

>  <REMARK>
 VINA RESULT:    -5.741      2.092      5.416
 INTER + INTRA:         -11.632
 INTER:                  -9.906
 INTRA:                  -1.726
 UNBOUND:                -1.361
  Name = CHEMBL86638
  16 active torsions:
  status: ('A' for Active; 'I' for Inactive)
    1  A    between atoms: C_1  and  C_2
    2  A    between atoms: C_2  and  C_3
    3  A    between atoms: C_3  and  C_4
    4  A    between atoms: C_4  and  C_5
    5  A    between atoms: C_5  and  C_6
    6  A    between atoms: C_6  and  C_7
    7  A    between atoms: C_7  and  C_8
    8  A    between atoms: C_8  and  C_9
    9  A    between atoms: C_9  and  C_10
   10  A    between atoms: C_10  and  C_11
   11  A    between atoms: C_11  and  C_12
   12  A    between atoms: N_14  and  C_15
   13  A    between atoms: C_15  and  C_16
   14  A    between atoms: C_19  and  O_20
   15  A    between atoms: C_21  and  O_22
   16  A    between atoms: O_22  and  C_23
                            x       y       z     vdW  Elec       q    Type
                         _______ _______ _______ _____ _____    ______ ____

>  <TORSDO>
F 14

>  <SCORE>
-5.741

>  <RMSD_LB>
2.092

>  <RMSD_UB>
5.416

$$$$
CHEMBL86638
 OpenBabel10172500063D

 26 26  0  0  0  0  0  0  0  0999 V2000
  138.3570  137.7640  152.3080 C   0  0  0  0  0  0  0  0  0  0  0  0
  139.1130  138.6390  152.7290 O   0  0  0  0  0  0  0  0  0  0  0  0
  137.5540  137.0140  153.1330 N   0  0  0  0  0  0  0  0  0  0  0  0
  136.9520  136.3400  152.7410 H   0  0  0  0  0  0  0  0  0  0  0  0
  138.2160  137.4350  150.8360 C   0  0  0  0  0  2  0  0  0  0  0  0
  136.8510  136.8010  150.5630 C   0  0  0  0  0  2  0  0  0  0  0  0
  136.4010  136.9790  149.1190 C   0  0  0  0  0  2  0  0  0  0  0  0
  136.9970  135.8790  148.2410 C   0  0  0  0  0  2  0  0  0  0  0  0
  135.9780  135.3710  147.2290 C   0  0  0  0  0  2  0  0  0  0  0  0
  134.5790  135.3440  147.8350 C   0  0  0  0  0  2  0  0  0  0  0  0
  133.7850  134.1560  147.3030 C   0  0  0  0  0  2  0  0  0  0  0  0
  132.7710  133.6740  148.3350 C   0  0  0  0  0  2  0  0  0  0  0  0
  133.0520  134.2990  149.6980 C   0  0  0  0  0  2  0  0  0  0  0  0
  134.8850  133.8630  151.3540 C   0  0  0  0  0  1  0  0  0  0  0  0
  133.6720  133.2820  150.6510 C   0  0  0  0  0  2  0  0  0  0  0  0
  137.5790  137.2000  154.5670 C   0  0  0  0  0  2  0  0  0  0  0  0
  136.5420  136.3610  155.2690 C   0  0  0  0  0  0  0  0  0  0  0  0
  135.5770  135.6720  154.5260 C   0  0  0  0  0  3  0  0  0  0  0  0
  134.6210  134.8810  155.1660 C   0  0  0  0  0  3  0  0  0  0  0  0
  134.6170  134.7760  156.5600 C   0  0  0  0  0  0  0  0  0  0  0  0
  135.5570  135.4690  157.3270 C   0  0  0  0  0  0  0  0  0  0  0  0
  136.5120  136.2600  156.6670 C   0  0  0  0  0  3  0  0  0  0  0  0
  133.6640  133.9790  157.1370 O   0  0  0  0  0  0  0  0  0  0  0  0
  132.7610  134.2240  157.0940 H   0  0  0  0  0  0  0  0  0  0  0  0
  135.6910  135.4860  158.6900 O   0  0  0  0  0  0  0  0  0  0  0  0
  136.5110  134.4900  159.2880 C   0  0  0  0  0  1  0  0  0  0  0  0
  1  2  2  0  0  0  0
  1  3  1  0  0  0  0
  3 16  1  0  0  0  0
  4  3  1  0  0  0  0
  5  1  1  0  0  0  0
  6  5  1  0  0  0  0
  7  6  1  0  0  0  0
  8  7  1  0  0  0  0
  9 10  1  0  0  0  0
  9  8  1  0  0  0  0
 11 10  1  0  0  0  0
 11 12  1  0  0  0  0
 12 13  1  0  0  0  0
 13 15  1  0  0  0  0
 15 14  1  0  0  0  0
 16 17  1  0  0  0  0
 17 22  1  0  0  0  0
 18 19  1  0  0  0  0
 18 17  2  0  0  0  0
 19 20  2  0  0  0  0
 20 23  1  0  0  0  0
 20 21  1  0  0  0  0
 21 25  1  0  0  0  0
 22 21  2  0  0  0  0
 24 23  1  0  0  0  0
 25 26  1  0  0  0  0
M  END
>  <MODEL>
5

>  <REMARK>
 VINA RESULT:    -5.670      2.435      6.081
 INTER + INTRA:         -11.506
 INTER:                  -9.858
 INTRA:                  -1.648
 UNBOUND:                -1.361
  Name = CHEMBL86638
  16 active torsions:
  status: ('A' for Active; 'I' for Inactive)
    1  A    between atoms: C_1  and  C_2
    2  A    between atoms: C_2  and  C_3
    3  A    between atoms: C_3  and  C_4
    4  A    between atoms: C_4  and  C_5
    5  A    between atoms: C_5  and  C_6
    6  A    between atoms: C_6  and  C_7
    7  A    between atoms: C_7  and  C_8
    8  A    between atoms: C_8  and  C_9
    9  A    between atoms: C_9  and  C_10
   10  A    between atoms: C_10  and  C_11
   11  A    between atoms: C_11  and  C_12
   12  A    between atoms: N_14  and  C_15
   13  A    between atoms: C_15  and  C_16
   14  A    between atoms: C_19  and  O_20
   15  A    between atoms: C_21  and  O_22
   16  A    between atoms: O_22  and  C_23
                            x       y       z     vdW  Elec       q    Type
                         _______ _______ _______ _____ _____    ______ ____

>  <TORSDO>
F 14

>  <SCORE>
-5.670

>  <RMSD_LB>
2.435

>  <RMSD_UB>
6.081

$$$$
CHEMBL86638
 OpenBabel10172500063D

 26 26  0  0  0  0  0  0  0  0999 V2000
  138.3900  137.4800  149.4410 C   0  0  0  0  0  0  0  0  0  0  0  0
  139.0320  137.7650  148.4320 O   0  0  0  0  0  0  0  0  0  0  0  0
  138.9850  137.1810  150.6430 N   0  0  0  0  0  0  0  0  0  0  0  0
  138.4220  136.9800  151.4270 H   0  0  0  0  0  0  0  0  0  0  0  0
  136.8750  137.4510  149.4740 C   0  0  0  0  0  2  0  0  0  0  0  0
  136.3540  136.1900  148.7840 C   0  0  0  0  0  2  0  0  0  0  0  0
  135.4770  136.5030  147.5780 C   0  0  0  0  0  2  0  0  0  0  0  0
  134.8460  135.2200  147.0370 C   0  0  0  0  0  2  0  0  0  0  0  0
  133.3290  135.2550  147.1720 C   0  0  0  0  0  2  0  0  0  0  0  0
  132.8820  134.5470  148.4460 C   0  0  0  0  0  2  0  0  0  0  0  0
  133.5120  133.1610  148.5410 C   0  0  0  0  0  2  0  0  0  0  0  0
  134.3000  133.0090  149.8380 C   0  0  0  0  0  2  0  0  0  0  0  0
  133.5680  133.6830  150.9940 C   0  0  0  0  0  2  0  0  0  0  0  0
  135.8920  134.1460  151.8150 C   0  0  0  0  0  1  0  0  0  0  0  0
  134.4740  134.6780  151.7110 C   0  0  0  0  0  2  0  0  0  0  0  0
  140.4250  137.1560  150.7750 C   0  0  0  0  0  2  0  0  0  0  0  0
  140.8820  137.6410  152.1270 C   0  0  0  0  0  0  0  0  0  0  0  0
  142.2320  137.5560  152.4850 C   0  0  0  0  0  3  0  0  0  0  0  0
  142.6660  138.0160  153.7290 C   0  0  0  0  0  3  0  0  0  0  0  0
  141.7510  138.5610  154.6350 C   0  0  0  0  0  0  0  0  0  0  0  0
  140.3940  138.6400  154.3100 C   0  0  0  0  0  0  0  0  0  0  0  0
  139.9740  138.1740  153.0540 C   0  0  0  0  0  3  0  0  0  0  0  0
  142.2320  139.0050  155.8370 O   0  0  0  0  0  0  0  0  0  0  0  0
  142.6460  139.8430  155.8960 H   0  0  0  0  0  0  0  0  0  0  0  0
  139.3690  139.1330  155.0740 O   0  0  0  0  0  0  0  0  0  0  0  0
  138.1210  138.4540  155.0250 C   0  0  0  0  0  1  0  0  0  0  0  0
  1  5  1  0  0  0  0
  1  3  1  0  0  0  0
  2  1  2  0  0  0  0
  3 16  1  0  0  0  0
  3  4  1  0  0  0  0
  6  5  1  0  0  0  0
  7  6  1  0  0  0  0
  8  9  1  0  0  0  0
  8  7  1  0  0  0  0
  9 10  1  0  0  0  0
 10 11  1  0  0  0  0
 11 12  1  0  0  0  0
 12 13  1  0  0  0  0
 13 15  1  0  0  0  0
 15 14  1  0  0  0  0
 16 17  1  0  0  0  0
 17 18  2  0  0  0  0
 17 22  1  0  0  0  0
 18 19  1  0  0  0  0
 19 20  2  0  0  0  0
 20 23  1  0  0  0  0
 21 20  1  0  0  0  0
 21 25  1  0  0  0  0
 22 21  2  0  0  0  0
 23 24  1  0  0  0  0
 26 25  1  0  0  0  0
M  END
>  <MODEL>
6

>  <REMARK>
 VINA RESULT:    -5.649      2.059      4.935
 INTER + INTRA:         -11.469
 INTER:                  -9.930
 INTRA:                  -1.538
 UNBOUND:                -1.361
  Name = CHEMBL86638
  16 active torsions:
  status: ('A' for Active; 'I' for Inactive)
    1  A    between atoms: C_1  and  C_2
    2  A    between atoms: C_2  and  C_3
    3  A    between atoms: C_3  and  C_4
    4  A    between atoms: C_4  and  C_5
    5  A    between atoms: C_5  and  C_6
    6  A    between atoms: C_6  and  C_7
    7  A    between atoms: C_7  and  C_8
    8  A    between atoms: C_8  and  C_9
    9  A    between atoms: C_9  and  C_10
   10  A    between atoms: C_10  and  C_11
   11  A    between atoms: C_11  and  C_12
   12  A    between atoms: N_14  and  C_15
   13  A    between atoms: C_15  and  C_16
   14  A    between atoms: C_19  and  O_20
   15  A    between atoms: C_21  and  O_22
   16  A    between atoms: O_22  and  C_23
                            x       y       z     vdW  Elec       q    Type
                         _______ _______ _______ _____ _____    ______ ____

>  <TORSDO>
F 14

>  <SCORE>
-5.649

>  <RMSD_LB>
2.059

>  <RMSD_UB>
4.935

$$$$
CHEMBL86638
 OpenBabel10172500063D

 26 26  0  0  0  0  0  0  0  0999 V2000
  133.3350  135.8280  150.3950 C   0  0  0  0  0  0  0  0  0  0  0  0
  132.4290  135.4120  151.1160 O   0  0  0  0  0  0  0  0  0  0  0  0
  134.6650  135.6530  150.6940 N   0  0  0  0  0  0  0  0  0  0  0  0
  135.3500  135.9880  150.0710 H   0  0  0  0  0  0  0  0  0  0  0  0
  133.0830  136.5580  149.0910 C   0  0  0  0  0  2  0  0  0  0  0  0
  133.6390  135.7520  147.9160 C   0  0  0  0  0  2  0  0  0  0  0  0
  132.9300  134.4160  147.7350 C   0  0  0  0  0  2  0  0  0  0  0  0
  133.9370  133.3310  147.3560 C   0  0  0  0  0  2  0  0  0  0  0  0
  135.3530  133.7360  147.7460 C   0  0  0  0  0  2  0  0  0  0  0  0
  136.2860  133.6750  146.5410 C   0  0  0  0  0  2  0  0  0  0  0  0
  135.7100  132.7640  145.4610 C   0  0  0  0  0  2  0  0  0  0  0  0
  136.6370  131.5820  145.1960 C   0  0  0  0  0  2  0  0  0  0  0  0
  136.9590  131.4740  143.7100 C   0  0  0  0  0  2  0  0  0  0  0  0
  137.6850  132.8040  141.7110 C   0  0  0  0  0  1  0  0  0  0  0  0
  136.9680  132.8480  143.0490 C   0  0  0  0  0  2  0  0  0  0  0  0
  135.0720  134.9830  151.9100 C   0  0  0  0  0  2  0  0  0  0  0  0
  136.0240  135.8180  152.7290 C   0  0  0  0  0  0  0  0  0  0  0  0
  136.9470  136.6560  152.0940 C   0  0  0  0  0  3  0  0  0  0  0  0
  137.8220  137.4440  152.8440 C   0  0  0  0  0  3  0  0  0  0  0  0
  137.7870  137.3960  154.2410 C   0  0  0  0  0  0  0  0  0  0  0  0
  136.8880  136.5520  154.9000 C   0  0  0  0  0  0  0  0  0  0  0  0
  136.0140  135.7680  154.1300 C   0  0  0  0  0  3  0  0  0  0  0  0
  138.6610  138.1950  154.9280 O   0  0  0  0  0  0  0  0  0  0  0  0
  139.5390  137.9060  155.0830 H   0  0  0  0  0  0  0  0  0  0  0  0
  136.7270  136.3760  156.2490 O   0  0  0  0  0  0  0  0  0  0  0  0
  135.6920  135.5030  156.6830 C   0  0  0  0  0  1  0  0  0  0  0  0
  1  3  1  0  0  0  0
  1  2  2  0  0  0  0
  3 16  1  0  0  0  0
  4  3  1  0  0  0  0
  5  1  1  0  0  0  0
  6  5  1  0  0  0  0
  7  6  1  0  0  0  0
  8  7  1  0  0  0  0
  8  9  1  0  0  0  0
 10  9  1  0  0  0  0
 11 10  1  0  0  0  0
 12 11  1  0  0  0  0
 13 12  1  0  0  0  0
 14 15  1  0  0  0  0
 15 13  1  0  0  0  0
 16 17  1  0  0  0  0
 17 22  1  0  0  0  0
 18 17  2  0  0  0  0
 18 19  1  0  0  0  0
 19 20  2  0  0  0  0
 20 21  1  0  0  0  0
 20 23  1  0  0  0  0
 21 25  1  0  0  0  0
 22 21  2  0  0  0  0
 23 24  1  0  0  0  0
 25 26  1  0  0  0  0
M  END
>  <MODEL>
7

>  <REMARK>
 VINA RESULT:    -5.571      3.928      6.479
 INTER + INTRA:         -11.328
 INTER:                 -10.195
 INTRA:                  -1.133
 UNBOUND:                -1.361
  Name = CHEMBL86638
  16 active torsions:
  status: ('A' for Active; 'I' for Inactive)
    1  A    between atoms: C_1  and  C_2
    2  A    between atoms: C_2  and  C_3
    3  A    between atoms: C_3  and  C_4
    4  A    between atoms: C_4  and  C_5
    5  A    between atoms: C_5  and  C_6
    6  A    between atoms: C_6  and  C_7
    7  A    between atoms: C_7  and  C_8
    8  A    between atoms: C_8  and  C_9
    9  A    between atoms: C_9  and  C_10
   10  A    between atoms: C_10  and  C_11
   11  A    between atoms: C_11  and  C_12
   12  A    between atoms: N_14  and  C_15
   13  A    between atoms: C_15  and  C_16
   14  A    between atoms: C_19  and  O_20
   15  A    between atoms: C_21  and  O_22
   16  A    between atoms: O_22  and  C_23
                            x       y       z     vdW  Elec       q    Type
                         _______ _______ _______ _____ _____    ______ ____

>  <TORSDO>
F 14

>  <SCORE>
-5.571

>  <RMSD_LB>
3.928

>  <RMSD_UB>
6.479

$$$$
CHEMBL86638
 OpenBabel10172500063D

 26 26  0  0  0  0  0  0  0  0999 V2000
  139.0500  137.9470  149.6040 C   0  0  0  0  0  0  0  0  0  0  0  0
  139.4780  138.5160  148.6010 O   0  0  0  0  0  0  0  0  0  0  0  0
  139.8360  137.1470  150.3980 N   0  0  0  0  0  0  0  0  0  0  0  0
  139.4470  136.7320  151.2030 H   0  0  0  0  0  0  0  0  0  0  0  0
  137.6190  138.0850  150.0830 C   0  0  0  0  0  2  0  0  0  0  0  0
  137.2970  136.9980  151.1100 C   0  0  0  0  0  2  0  0  0  0  0  0
  136.0490  136.2020  150.7480 C   0  0  0  0  0  2  0  0  0  0  0  0
  135.1780  135.9950  151.9860 C   0  0  0  0  0  2  0  0  0  0  0  0
  134.6000  134.5860  152.0210 C   0  0  0  0  0  2  0  0  0  0  0  0
  135.0860  133.7700  150.8280 C   0  0  0  0  0  2  0  0  0  0  0  0
  133.9480  132.9370  150.2470 C   0  0  0  0  0  2  0  0  0  0  0  0
  133.7260  133.2710  148.7760 C   0  0  0  0  0  2  0  0  0  0  0  0
  132.7350  134.4210  148.6290 C   0  0  0  0  0  2  0  0  0  0  0  0
  132.7840  136.9230  148.8080 C   0  0  0  0  0  1  0  0  0  0  0  0
  133.4410  135.7010  148.1920 C   0  0  0  0  0  2  0  0  0  0  0  0
  141.2240  136.9070  150.0710 C   0  0  0  0  0  2  0  0  0  0  0  0
  142.1420  137.2020  151.2300 C   0  0  0  0  0  0  0  0  0  0  0  0
  141.6100  137.5420  152.4780 C   0  0  0  0  0  3  0  0  0  0  0  0
  142.4520  137.8020  153.5610 C   0  0  0  0  0  3  0  0  0  0  0  0
  143.8390  137.7320  153.4040 C   0  0  0  0  0  0  0  0  0  0  0  0
  144.3970  137.4140  152.1630 C   0  0  0  0  0  0  0  0  0  0  0  0
  143.5360  137.1530  151.0840 C   0  0  0  0  0  3  0  0  0  0  0  0
  144.6180  137.9880  154.5000 O   0  0  0  0  0  0  0  0  0  0  0  0
  145.3060  138.6220  154.4480 H   0  0  0  0  0  0  0  0  0  0  0  0
  145.7220  137.3100  151.8330 O   0  0  0  0  0  0  0  0  0  0  0  0
  146.2790  136.0060  151.7270 C   0  0  0  0  0  1  0  0  0  0  0  0
  1  5  1  0  0  0  0
  1  3  1  0  0  0  0
  2  1  2  0  0  0  0
  3  4  1  0  0  0  0
  5  6  1  0  0  0  0
  7  6  1  0  0  0  0
  7  8  1  0  0  0  0
  8  9  1  0  0  0  0
 10  9  1  0  0  0  0
 11 10  1  0  0  0  0
 12 11  1  0  0  0  0
 13 12  1  0  0  0  0
 15 13  1  0  0  0  0
 15 14  1  0  0  0  0
 16  3  1  0  0  0  0
 16 17  1  0  0  0  0
 17 18  1  0  0  0  0
 18 19  2  0  0  0  0
 20 19  1  0  0  0  0
 20 23  1  0  0  0  0
 21 20  2  0  0  0  0
 22 17  2  0  0  0  0
 22 21  1  0  0  0  0
 24 23  1  0  0  0  0
 25 21  1  0  0  0  0
 26 25  1  0  0  0  0
M  END
>  <MODEL>
8

>  <REMARK>
 VINA RESULT:    -5.563      2.780      4.726
 INTER + INTRA:         -11.314
 INTER:                  -9.793
 INTRA:                  -1.521
 UNBOUND:                -1.361
  Name = CHEMBL86638
  16 active torsions:
  status: ('A' for Active; 'I' for Inactive)
    1  A    between atoms: C_1  and  C_2
    2  A    between atoms: C_2  and  C_3
    3  A    between atoms: C_3  and  C_4
    4  A    between atoms: C_4  and  C_5
    5  A    between atoms: C_5  and  C_6
    6  A    between atoms: C_6  and  C_7
    7  A    between atoms: C_7  and  C_8
    8  A    between atoms: C_8  and  C_9
    9  A    between atoms: C_9  and  C_10
   10  A    between atoms: C_10  and  C_11
   11  A    between atoms: C_11  and  C_12
   12  A    between atoms: N_14  and  C_15
   13  A    between atoms: C_15  and  C_16
   14  A    between atoms: C_19  and  O_20
   15  A    between atoms: C_21  and  O_22
   16  A    between atoms: O_22  and  C_23
                            x       y       z     vdW  Elec       q    Type
                         _______ _______ _______ _____ _____    ______ ____

>  <TORSDO>
F 14

>  <SCORE>
-5.563

>  <RMSD_LB>
2.780

>  <RMSD_UB>
4.726

$$$$
CHEMBL86638
 OpenBabel10172500063D

 26 26  0  0  0  0  0  0  0  0999 V2000
  147.2830  139.0780  154.1200 C   0  0  0  0  0  0  0  0  0  0  0  0
  146.7990  139.8650  154.9320 O   0  0  0  0  0  0  0  0  0  0  0  0
  147.8170  139.4830  152.9200 N   0  0  0  0  0  0  0  0  0  0  0  0
  148.2120  138.8130  152.3140 H   0  0  0  0  0  0  0  0  0  0  0  0
  147.3640  137.5850  154.3630 C   0  0  0  0  0  2  0  0  0  0  0  0
  147.2990  136.8270  153.0370 C   0  0  0  0  0  2  0  0  0  0  0  0
  145.8740  136.4660  152.6390 C   0  0  0  0  0  2  0  0  0  0  0  0
  144.9340  136.6270  153.8340 C   0  0  0  0  0  2  0  0  0  0  0  0
  143.8330  137.6360  153.5350 C   0  0  0  0  0  2  0  0  0  0  0  0
  143.2100  137.3690  152.1690 C   0  0  0  0  0  2  0  0  0  0  0  0
  141.6900  137.4690  152.2430 C   0  0  0  0  0  2  0  0  0  0  0  0
  141.2460  138.0210  153.5930 C   0  0  0  0  0  2  0  0  0  0  0  0
  139.7720  138.4110  153.5580 C   0  0  0  0  0  2  0  0  0  0  0  0
  140.1390  137.7990  155.9620 C   0  0  0  0  0  1  0  0  0  0  0  0
  139.1110  138.1850  154.9130 C   0  0  0  0  0  2  0  0  0  0  0  0
  147.8090  140.8770  152.5330 C   0  0  0  0  0  2  0  0  0  0  0  0
  147.2960  141.0760  151.1300 C   0  0  0  0  0  0  0  0  0  0  0  0
  147.1960  142.3650  150.5950 C   0  0  0  0  0  3  0  0  0  0  0  0
  146.7350  142.5580  149.2910 C   0  0  0  0  0  3  0  0  0  0  0  0
  146.3610  141.4610  148.5090 C   0  0  0  0  0  0  0  0  0  0  0  0
  146.4330  140.1640  149.0260 C   0  0  0  0  0  0  0  0  0  0  0  0
  146.9000  139.9870  150.3380 C   0  0  0  0  0  3  0  0  0  0  0  0
  145.9250  141.7050  147.2350 O   0  0  0  0  0  0  0  0  0  0  0  0
  145.1400  142.1960  147.0950 H   0  0  0  0  0  0  0  0  0  0  0  0
  146.1030  138.9870  148.4070 O   0  0  0  0  0  0  0  0  0  0  0  0
  146.6150  137.7820  148.9600 C   0  0  0  0  0  1  0  0  0  0  0  0
  1  5  1  0  0  0  0
  1  2  2  0  0  0  0
  3  1  1  0  0  0  0
  4  3  1  0  0  0  0
  6  5  1  0  0  0  0
  7  6  1  0  0  0  0
  7  8  1  0  0  0  0
  9  8  1  0  0  0  0
 10 11  1  0  0  0  0
 10  9  1  0  0  0  0
 11 12  1  0  0  0  0
 13 12  1  0  0  0  0
 13 15  1  0  0  0  0
 15 14  1  0  0  0  0
 16  3  1  0  0  0  0
 17 16  1  0  0  0  0
 18 17  1  0  0  0  0
 19 18  2  0  0  0  0
 20 21  2  0  0  0  0
 20 19  1  0  0  0  0
 21 22  1  0  0  0  0
 22 17  2  0  0  0  0
 23 20  1  0  0  0  0
 24 23  1  0  0  0  0
 25 26  1  0  0  0  0
 25 21  1  0  0  0  0
M  END
>  <MODEL>
9

>  <REMARK>
 VINA RESULT:    -5.563      5.797      9.067
 INTER + INTRA:         -11.314
 INTER:                  -9.953
 INTRA:                  -1.361
 UNBOUND:                -1.361
  Name = CHEMBL86638
  16 active torsions:
  status: ('A' for Active; 'I' for Inactive)
    1  A    between atoms: C_1  and  C_2
    2  A    between atoms: C_2  and  C_3
    3  A    between atoms: C_3  and  C_4
    4  A    between atoms: C_4  and  C_5
    5  A    between atoms: C_5  and  C_6
    6  A    between atoms: C_6  and  C_7
    7  A    between atoms: C_7  and  C_8
    8  A    between atoms: C_8  and  C_9
    9  A    between atoms: C_9  and  C_10
   10  A    between atoms: C_10  and  C_11
   11  A    between atoms: C_11  and  C_12
   12  A    between atoms: N_14  and  C_15
   13  A    between atoms: C_15  and  C_16
   14  A    between atoms: C_19  and  O_20
   15  A    between atoms: C_21  and  O_22
   16  A    between atoms: O_22  and  C_23
                            x       y       z     vdW  Elec       q    Type
                         _______ _______ _______ _____ _____    ______ ____

>  <TORSDO>
F 14

>  <SCORE>
-5.563

>  <RMSD_LB>
5.797

>  <RMSD_UB>
9.067

$$$$
