CHEMBL77304
 OpenBabel10162523533D

 22 22  0  0  0  0  0  0  0  0999 V2000
  134.4200  135.4690  152.2360 C   0  0  0  0  0  0  0  0  0  0  0  0
  133.9220  136.5640  152.5090 O   0  0  0  0  0  0  0  0  0  0  0  0
  135.9230  135.2430  152.2070 C   0  0  0  0  0  2  0  0  0  0  0  0
  136.6040  136.1820  151.2170 C   0  0  0  0  0  2  0  0  0  0  0  0
  136.7930  135.5330  149.8500 C   0  0  0  0  0  2  0  0  0  0  0  0
  136.5150  136.5480  148.7430 C   0  0  0  0  0  2  0  0  0  0  0  0
  137.7430  136.7580  147.8650 C   0  0  0  0  0  2  0  0  0  0  0  0
  138.0450  138.2460  147.7020 C   0  0  0  0  0  2  0  0  0  0  0  0
  136.8660  139.0910  148.1770 C   0  0  0  0  0  2  0  0  0  0  0  0
  138.5040  140.1850  149.7320 C   0  0  0  0  0  1  0  0  0  0  0  0
  137.3380  140.4090  148.7840 C   0  0  0  0  0  2  0  0  0  0  0  0
  133.5470  134.2860  151.8700 C   0  0  0  0  0  2  0  0  0  0  0  0
  133.5430  134.0190  150.3890 C   0  0  0  0  0  0  0  0  0  0  0  0
  134.0200  132.8020  149.8890 C   0  0  0  0  0  3  0  0  0  0  0  0
  134.0050  132.5450  148.5190 C   0  0  0  0  0  3  0  0  0  0  0  0
  133.5170  133.5050  147.6270 C   0  0  0  0  0  0  0  0  0  0  0  0
  133.0490  134.7360  148.1010 C   0  0  0  0  0  0  0  0  0  0  0  0
  133.0700  134.9780  149.4840 C   0  0  0  0  0  3  0  0  0  0  0  0
  133.5150  133.2000  146.2950 O   0  0  0  0  0  0  0  0  0  0  0  0
  132.8610  133.5640  145.7320 H   0  0  0  0  0  0  0  0  0  0  0  0
  132.5490  135.7900  147.3850 O   0  0  0  0  0  0  0  0  0  0  0  0
  132.7260  137.0980  147.9100 C   0  0  0  0  0  1  0  0  0  0  0  0
  1  2  2  0  0  0  0
  3  1  1  0  0  0  0
  4  3  1  0  0  0  0
  5  4  1  0  0  0  0
  6  5  1  0  0  0  0
  7  6  1  0  0  0  0
  8  7  1  0  0  0  0
  8  9  1  0  0  0  0
  9 11  1  0  0  0  0
 11 10  1  0  0  0  0
 12  1  1  0  0  0  0
 13 12  1  0  0  0  0
 14 13  1  0  0  0  0
 15 14  2  0  0  0  0
 16 17  2  0  0  0  0
 16 15  1  0  0  0  0
 17 18  1  0  0  0  0
 18 13  2  0  0  0  0
 19 16  1  0  0  0  0
 20 19  1  0  0  0  0
 21 22  1  0  0  0  0
 21 17  1  0  0  0  0
M  END
>  <MODEL>
1

>  <REMARK>
 VINA RESULT:    -5.781      0.000      0.000
 INTER + INTRA:         -11.187
 INTER:                  -9.364
 INTRA:                  -1.824
 UNBOUND:                -1.520
  Name = CHEMBL77304
  14 active torsions:
  status: ('A' for Active; 'I' for Inactive)
    1  A    between atoms: C_1  and  C_2
    2  A    between atoms: C_2  and  C_3
    3  A    between atoms: C_3  and  C_4
    4  A    between atoms: C_4  and  C_5
    5  A    between atoms: C_5  and  C_6
    6  A    between atoms: C_6  and  C_7
    7  A    between atoms: C_7  and  C_8
    8  A    between atoms: C_8  and  C_9
    9  A    between atoms: C_9  and  C_10
   10  A    between atoms: C_10  and  C_12
   11  A    between atoms: C_12  and  C_13
   12  A    between atoms: C_16  and  O_17
   13  A    between atoms: C_18  and  O_19
   14  A    between atoms: O_19  and  C_20
                            x       y       z     vdW  Elec       q    Type
                         _______ _______ _______ _____ _____    ______ ____

>  <TORSDO>
F 12

>  <SCORE>
-5.781

>  <RMSD_LB>
0.000

>  <RMSD_UB>
0.000

$$$$
CHEMBL77304
 OpenBabel10162523533D

 22 22  0  0  0  0  0  0  0  0999 V2000
  134.8950  135.4470  154.0820 C   0  0  0  0  0  0  0  0  0  0  0  0
  134.1800  136.4350  153.9070 O   0  0  0  0  0  0  0  0  0  0  0  0
  134.6480  134.1270  153.3700 C   0  0  0  0  0  2  0  0  0  0  0  0
  134.6710  134.3010  151.8560 C   0  0  0  0  0  2  0  0  0  0  0  0
  133.5920  133.4720  151.1670 C   0  0  0  0  0  2  0  0  0  0  0  0
  132.8990  134.3020  150.0880 C   0  0  0  0  0  2  0  0  0  0  0  0
  132.7290  135.7510  150.5300 C   0  0  0  0  0  2  0  0  0  0  0  0
  132.9960  136.7070  149.3690 C   0  0  0  0  0  2  0  0  0  0  0  0
  133.0220  135.9510  148.0430 C   0  0  0  0  0  2  0  0  0  0  0  0
  133.1010  137.7110  146.2570 C   0  0  0  0  0  1  0  0  0  0  0  0
  132.2300  136.6900  146.9690 C   0  0  0  0  0  2  0  0  0  0  0  0
  136.0520  135.4860  155.0600 C   0  0  0  0  0  2  0  0  0  0  0  0
  135.5870  135.4560  156.4920 C   0  0  0  0  0  0  0  0  0  0  0  0
  134.4670  134.7010  156.8550 C   0  0  0  0  0  3  0  0  0  0  0  0
  134.0410  134.6590  158.1830 C   0  0  0  0  0  3  0  0  0  0  0  0
  134.7290  135.3790  159.1650 C   0  0  0  0  0  0  0  0  0  0  0  0
  135.8420  136.1550  158.8230 C   0  0  0  0  0  0  0  0  0  0  0  0
  136.2580  136.1840  157.4830 C   0  0  0  0  0  3  0  0  0  0  0  0
  134.2770  135.2970  160.4520 O   0  0  0  0  0  0  0  0  0  0  0  0
  133.9570  136.0620  160.8870 H   0  0  0  0  0  0  0  0  0  0  0  0
  136.6250  136.9260  159.6400 O   0  0  0  0  0  0  0  0  0  0  0  0
  136.1990  138.2530  159.9130 C   0  0  0  0  0  1  0  0  0  0  0  0
  1 12  1  0  0  0  0
  2  1  2  0  0  0  0
  3  1  1  0  0  0  0
  4  3  1  0  0  0  0
  5  4  1  0  0  0  0
  6  7  1  0  0  0  0
  6  5  1  0  0  0  0
  8  7  1  0  0  0  0
  9  8  1  0  0  0  0
 10 11  1  0  0  0  0
 11  9  1  0  0  0  0
 12 13  1  0  0  0  0
 13 14  2  0  0  0  0
 13 18  1  0  0  0  0
 14 15  1  0  0  0  0
 15 16  2  0  0  0  0
 16 19  1  0  0  0  0
 17 16  1  0  0  0  0
 17 21  1  0  0  0  0
 18 17  2  0  0  0  0
 19 20  1  0  0  0  0
 21 22  1  0  0  0  0
M  END
>  <MODEL>
2

>  <REMARK>
 VINA RESULT:    -5.697      4.471      7.910
 INTER + INTRA:         -11.047
 INTER:                 -10.232
 INTRA:                  -0.815
 UNBOUND:                -1.520
  Name = CHEMBL77304
  14 active torsions:
  status: ('A' for Active; 'I' for Inactive)
    1  A    between atoms: C_1  and  C_2
    2  A    between atoms: C_2  and  C_3
    3  A    between atoms: C_3  and  C_4
    4  A    between atoms: C_4  and  C_5
    5  A    between atoms: C_5  and  C_6
    6  A    between atoms: C_6  and  C_7
    7  A    between atoms: C_7  and  C_8
    8  A    between atoms: C_8  and  C_9
    9  A    between atoms: C_9  and  C_10
   10  A    between atoms: C_10  and  C_12
   11  A    between atoms: C_12  and  C_13
   12  A    between atoms: C_16  and  O_17
   13  A    between atoms: C_18  and  O_19
   14  A    between atoms: O_19  and  C_20
                            x       y       z     vdW  Elec       q    Type
                         _______ _______ _______ _____ _____    ______ ____

>  <TORSDO>
F 12

>  <SCORE>
-5.697

>  <RMSD_LB>
4.471

>  <RMSD_UB>
7.910

$$$$
CHEMBL77304
 OpenBabel10162523533D

 22 22  0  0  0  0  0  0  0  0999 V2000
  134.3950  135.5760  153.8950 C   0  0  0  0  0  0  0  0  0  0  0  0
  133.9680  136.6930  154.1930 O   0  0  0  0  0  0  0  0  0  0  0  0
  133.6600  134.6530  152.9370 C   0  0  0  0  0  2  0  0  0  0  0  0
  134.6320  133.7690  152.1650 C   0  0  0  0  0  2  0  0  0  0  0  0
  134.7280  134.1700  150.6960 C   0  0  0  0  0  2  0  0  0  0  0  0
  133.6790  133.4210  149.8770 C   0  0  0  0  0  2  0  0  0  0  0  0
  132.8510  134.3810  149.0300 C   0  0  0  0  0  2  0  0  0  0  0  0
  133.6470  135.6420  148.7050 C   0  0  0  0  0  2  0  0  0  0  0  0
  132.7120  136.8250  148.4720 C   0  0  0  0  0  2  0  0  0  0  0  0
  133.4540  136.6480  146.0810 C   0  0  0  0  0  1  0  0  0  0  0  0
  132.2810  136.9110  147.0100 C   0  0  0  0  0  2  0  0  0  0  0  0
  135.6730  135.0420  154.5080 C   0  0  0  0  0  2  0  0  0  0  0  0
  136.2060  135.9450  155.5890 C   0  0  0  0  0  0  0  0  0  0  0  0
  135.9430  135.6680  156.9350 C   0  0  0  0  0  3  0  0  0  0  0  0
  136.4460  136.4930  157.9400 C   0  0  0  0  0  3  0  0  0  0  0  0
  137.2160  137.6130  157.6100 C   0  0  0  0  0  0  0  0  0  0  0  0
  137.4800  137.9210  156.2700 C   0  0  0  0  0  0  0  0  0  0  0  0
  136.9660  137.0770  155.2720 C   0  0  0  0  0  3  0  0  0  0  0  0
  137.6940  138.3850  158.6320 O   0  0  0  0  0  0  0  0  0  0  0  0
  137.4910  138.1650  159.5200 H   0  0  0  0  0  0  0  0  0  0  0  0
  138.1980  138.9700  155.7630 O   0  0  0  0  0  0  0  0  0  0  0  0
  139.0350  138.7250  154.6420 C   0  0  0  0  0  1  0  0  0  0  0  0
  1  2  2  0  0  0  0
  1 12  1  0  0  0  0
  3  1  1  0  0  0  0
  4  3  1  0  0  0  0
  5  4  1  0  0  0  0
  6  5  1  0  0  0  0
  7  6  1  0  0  0  0
  8  7  1  0  0  0  0
  9  8  1  0  0  0  0
 10 11  1  0  0  0  0
 11  9  1  0  0  0  0
 12 13  1  0  0  0  0
 13 14  1  0  0  0  0
 14 15  2  0  0  0  0
 16 15  1  0  0  0  0
 16 19  1  0  0  0  0
 17 16  2  0  0  0  0
 18 13  2  0  0  0  0
 18 17  1  0  0  0  0
 19 20  1  0  0  0  0
 21 17  1  0  0  0  0
 22 21  1  0  0  0  0
M  END
>  <MODEL>
3

>  <REMARK>
 VINA RESULT:    -5.667      3.744      7.300
 INTER + INTRA:         -10.997
 INTER:                 -10.235
 INTRA:                  -0.761
 UNBOUND:                -1.520
  Name = CHEMBL77304
  14 active torsions:
  status: ('A' for Active; 'I' for Inactive)
    1  A    between atoms: C_1  and  C_2
    2  A    between atoms: C_2  and  C_3
    3  A    between atoms: C_3  and  C_4
    4  A    between atoms: C_4  and  C_5
    5  A    between atoms: C_5  and  C_6
    6  A    between atoms: C_6  and  C_7
    7  A    between atoms: C_7  and  C_8
    8  A    between atoms: C_8  and  C_9
    9  A    between atoms: C_9  and  C_10
   10  A    between atoms: C_10  and  C_12
   11  A    between atoms: C_12  and  C_13
   12  A    between atoms: C_16  and  O_17
   13  A    between atoms: C_18  and  O_19
   14  A    between atoms: O_19  and  C_20
                            x       y       z     vdW  Elec       q    Type
                         _______ _______ _______ _____ _____    ______ ____

>  <TORSDO>
F 12

>  <SCORE>
-5.667

>  <RMSD_LB>
3.744

>  <RMSD_UB>
7.300

$$$$
CHEMBL77304
 OpenBabel10162523533D

 22 22  0  0  0  0  0  0  0  0999 V2000
  134.7650  135.2260  152.0790 C   0  0  0  0  0  0  0  0  0  0  0  0
  134.3150  136.2720  152.5500 O   0  0  0  0  0  0  0  0  0  0  0  0
  136.2420  135.0400  151.7730 C   0  0  0  0  0  2  0  0  0  0  0  0
  136.8120  136.2490  151.0400 C   0  0  0  0  0  2  0  0  0  0  0  0
  137.5940  137.1670  151.9720 C   0  0  0  0  0  2  0  0  0  0  0  0
  138.9440  137.5220  151.3510 C   0  0  0  0  0  2  0  0  0  0  0  0
  139.9610  137.9030  152.4200 C   0  0  0  0  0  2  0  0  0  0  0  0
  141.3540  137.4000  152.0480 C   0  0  0  0  0  2  0  0  0  0  0  0
  142.4300  138.3000  152.6490 C   0  0  0  0  0  2  0  0  0  0  0  0
  144.3440  137.0250  153.6530 C   0  0  0  0  0  1  0  0  0  0  0  0
  143.8250  137.7290  152.4110 C   0  0  0  0  0  2  0  0  0  0  0  0
  133.8480  134.0680  151.7380 C   0  0  0  0  0  2  0  0  0  0  0  0
  133.7230  133.8610  150.2520 C   0  0  0  0  0  0  0  0  0  0  0  0
  134.0740  132.6350  149.6770 C   0  0  0  0  0  3  0  0  0  0  0  0
  133.9460  132.4340  148.3030 C   0  0  0  0  0  3  0  0  0  0  0  0
  133.4690  133.4610  147.4840 C   0  0  0  0  0  0  0  0  0  0  0  0
  133.1250  134.7020  148.0330 C   0  0  0  0  0  0  0  0  0  0  0  0
  133.2590  134.8860  149.4180 C   0  0  0  0  0  3  0  0  0  0  0  0
  133.3520  133.2110  146.1450 O   0  0  0  0  0  0  0  0  0  0  0  0
  132.7720  133.7260  145.6200 H   0  0  0  0  0  0  0  0  0  0  0  0
  132.6550  135.8160  147.3910 O   0  0  0  0  0  0  0  0  0  0  0  0
  132.6310  137.0410  148.1110 C   0  0  0  0  0  1  0  0  0  0  0  0
  1  2  2  0  0  0  0
  3  1  1  0  0  0  0
  4  3  1  0  0  0  0
  4  5  1  0  0  0  0
  6  5  1  0  0  0  0
  6  7  1  0  0  0  0
  8  7  1  0  0  0  0
  8  9  1  0  0  0  0
 11  9  1  0  0  0  0
 11 10  1  0  0  0  0
 12  1  1  0  0  0  0
 13 12  1  0  0  0  0
 14 13  1  0  0  0  0
 15 14  2  0  0  0  0
 16 17  2  0  0  0  0
 16 15  1  0  0  0  0
 17 18  1  0  0  0  0
 18 13  2  0  0  0  0
 19 16  1  0  0  0  0
 20 19  1  0  0  0  0
 21 17  1  0  0  0  0
 21 22  1  0  0  0  0
M  END
>  <MODEL>
4

>  <REMARK>
 VINA RESULT:    -5.646      2.891      3.477
 INTER + INTRA:         -10.961
 INTER:                 -10.213
 INTRA:                  -0.749
 UNBOUND:                -1.520
  Name = CHEMBL77304
  14 active torsions:
  status: ('A' for Active; 'I' for Inactive)
    1  A    between atoms: C_1  and  C_2
    2  A    between atoms: C_2  and  C_3
    3  A    between atoms: C_3  and  C_4
    4  A    between atoms: C_4  and  C_5
    5  A    between atoms: C_5  and  C_6
    6  A    between atoms: C_6  and  C_7
    7  A    between atoms: C_7  and  C_8
    8  A    between atoms: C_8  and  C_9
    9  A    between atoms: C_9  and  C_10
   10  A    between atoms: C_10  and  C_12
   11  A    between atoms: C_12  and  C_13
   12  A    between atoms: C_16  and  O_17
   13  A    between atoms: C_18  and  O_19
   14  A    between atoms: O_19  and  C_20
                            x       y       z     vdW  Elec       q    Type
                         _______ _______ _______ _____ _____    ______ ____

>  <TORSDO>
F 12

>  <SCORE>
-5.646

>  <RMSD_LB>
2.891

>  <RMSD_UB>
3.477

$$$$
CHEMBL77304
 OpenBabel10162523533D

 22 22  0  0  0  0  0  0  0  0999 V2000
  135.4990  135.2450  151.9010 C   0  0  0  0  0  0  0  0  0  0  0  0
  136.4910  135.7300  151.3520 O   0  0  0  0  0  0  0  0  0  0  0  0
  135.6030  134.3320  153.1110 C   0  0  0  0  0  2  0  0  0  0  0  0
  134.5020  134.6280  154.1240 C   0  0  0  0  0  2  0  0  0  0  0  0
  135.0660  134.9960  155.4920 C   0  0  0  0  0  2  0  0  0  0  0  0
  136.3820  135.7540  155.3320 C   0  0  0  0  0  2  0  0  0  0  0  0
  136.6590  136.6420  156.5390 C   0  0  0  0  0  2  0  0  0  0  0  0
  136.8740  135.8000  157.7950 C   0  0  0  0  0  2  0  0  0  0  0  0
  136.0110  136.3130  158.9440 C   0  0  0  0  0  2  0  0  0  0  0  0
  137.6190  138.0160  159.8460 C   0  0  0  0  0  1  0  0  0  0  0  0
  136.2610  137.7960  159.2020 C   0  0  0  0  0  2  0  0  0  0  0  0
  134.1070  135.5060  151.3630 C   0  0  0  0  0  2  0  0  0  0  0  0
  133.8860  134.8600  150.0200 C   0  0  0  0  0  0  0  0  0  0  0  0
  133.8510  133.4670  149.9030 C   0  0  0  0  0  3  0  0  0  0  0  0
  133.6320  132.8650  148.6640 C   0  0  0  0  0  3  0  0  0  0  0  0
  133.4510  133.6520  147.5220 C   0  0  0  0  0  0  0  0  0  0  0  0
  133.4980  135.0480  147.6110 C   0  0  0  0  0  0  0  0  0  0  0  0
  133.7170  135.6360  148.8660 C   0  0  0  0  0  3  0  0  0  0  0  0
  133.2310  133.0140  146.3340 O   0  0  0  0  0  0  0  0  0  0  0  0
  132.9520  133.5020  145.5840 H   0  0  0  0  0  0  0  0  0  0  0  0
  133.3540  135.9690  146.6090 O   0  0  0  0  0  0  0  0  0  0  0  0
  132.4020  137.0080  146.7900 C   0  0  0  0  0  1  0  0  0  0  0  0
  1  3  1  0  0  0  0
  2  1  2  0  0  0  0
  3  4  1  0  0  0  0
  4  5  1  0  0  0  0
  6  5  1  0  0  0  0
  6  7  1  0  0  0  0
  7  8  1  0  0  0  0
  8  9  1  0  0  0  0
  9 11  1  0  0  0  0
 11 10  1  0  0  0  0
 12  1  1  0  0  0  0
 13 12  1  0  0  0  0
 14 13  1  0  0  0  0
 15 14  2  0  0  0  0
 16 17  2  0  0  0  0
 16 15  1  0  0  0  0
 17 18  1  0  0  0  0
 18 13  2  0  0  0  0
 19 16  1  0  0  0  0
 20 19  1  0  0  0  0
 21 22  1  0  0  0  0
 21 17  1  0  0  0  0
M  END
>  <MODEL>
5

>  <REMARK>
 VINA RESULT:    -5.480      3.574      5.558
 INTER + INTRA:         -10.684
 INTER:                  -9.770
 INTRA:                  -0.914
 UNBOUND:                -1.520
  Name = CHEMBL77304
  14 active torsions:
  status: ('A' for Active; 'I' for Inactive)
    1  A    between atoms: C_1  and  C_2
    2  A    between atoms: C_2  and  C_3
    3  A    between atoms: C_3  and  C_4
    4  A    between atoms: C_4  and  C_5
    5  A    between atoms: C_5  and  C_6
    6  A    between atoms: C_6  and  C_7
    7  A    between atoms: C_7  and  C_8
    8  A    between atoms: C_8  and  C_9
    9  A    between atoms: C_9  and  C_10
   10  A    between atoms: C_10  and  C_12
   11  A    between atoms: C_12  and  C_13
   12  A    between atoms: C_16  and  O_17
   13  A    between atoms: C_18  and  O_19
   14  A    between atoms: O_19  and  C_20
                            x       y       z     vdW  Elec       q    Type
                         _______ _______ _______ _____ _____    ______ ____

>  <TORSDO>
F 12

>  <SCORE>
-5.480

>  <RMSD_LB>
3.574

>  <RMSD_UB>
5.558

$$$$
CHEMBL77304
 OpenBabel10162523533D

 22 22  0  0  0  0  0  0  0  0999 V2000
  146.2410  136.6510  152.8970 C   0  0  0  0  0  0  0  0  0  0  0  0
  146.1650  135.9060  151.9170 O   0  0  0  0  0  0  0  0  0  0  0  0
  147.5410  137.3220  153.3100 C   0  0  0  0  0  2  0  0  0  0  0  0
  147.6460  137.4380  154.8260 C   0  0  0  0  0  2  0  0  0  0  0  0
  147.7890  138.8860  155.2810 C   0  0  0  0  0  2  0  0  0  0  0  0
  147.7480  139.8230  154.0750 C   0  0  0  0  0  2  0  0  0  0  0  0
  148.6850  141.0100  154.2650 C   0  0  0  0  0  2  0  0  0  0  0  0
  148.7210  141.8800  153.0100 C   0  0  0  0  0  2  0  0  0  0  0  0
  148.1550  141.1220  151.8130 C   0  0  0  0  0  2  0  0  0  0  0  0
  146.0020  142.3970  151.9990 C   0  0  0  0  0  1  0  0  0  0  0  0
  147.1190  141.9590  151.0680 C   0  0  0  0  0  2  0  0  0  0  0  0
  145.0330  136.9080  153.7750 C   0  0  0  0  0  2  0  0  0  0  0  0
  143.9980  137.7560  153.0850 C   0  0  0  0  0  0  0  0  0  0  0  0
  144.3840  138.8740  152.3390 C   0  0  0  0  0  3  0  0  0  0  0  0
  143.4300  139.6550  151.6860 C   0  0  0  0  0  3  0  0  0  0  0  0
  142.0730  139.3280  151.7770 C   0  0  0  0  0  0  0  0  0  0  0  0
  141.6600  138.2230  152.5300 C   0  0  0  0  0  0  0  0  0  0  0  0
  142.6350  137.4480  153.1800 C   0  0  0  0  0  3  0  0  0  0  0  0
  141.1790  140.1190  151.1110 O   0  0  0  0  0  0  0  0  0  0  0  0
  141.4520  140.6030  150.3560 H   0  0  0  0  0  0  0  0  0  0  0  0
  140.3890  137.7620  152.7390 O   0  0  0  0  0  0  0  0  0  0  0  0
  139.5360  137.6250  151.6110 C   0  0  0  0  0  1  0  0  0  0  0  0
  1  3  1  0  0  0  0
  1 12  1  0  0  0  0
  2  1  2  0  0  0  0
  3  4  1  0  0  0  0
  4  5  1  0  0  0  0
  6  7  1  0  0  0  0
  6  5  1  0  0  0  0
  8  7  1  0  0  0  0
  9  8  1  0  0  0  0
 11  9  1  0  0  0  0
 11 10  1  0  0  0  0
 13 18  1  0  0  0  0
 13 12  1  0  0  0  0
 14 13  2  0  0  0  0
 15 16  2  0  0  0  0
 15 14  1  0  0  0  0
 16 17  1  0  0  0  0
 17 21  1  0  0  0  0
 17 18  2  0  0  0  0
 19 16  1  0  0  0  0
 20 19  1  0  0  0  0
 22 21  1  0  0  0  0
M  END
>  <MODEL>
6

>  <REMARK>
 VINA RESULT:    -5.462      8.586     11.429
 INTER + INTRA:         -10.655
 INTER:                  -9.208
 INTRA:                  -1.447
 UNBOUND:                -1.520
  Name = CHEMBL77304
  14 active torsions:
  status: ('A' for Active; 'I' for Inactive)
    1  A    between atoms: C_1  and  C_2
    2  A    between atoms: C_2  and  C_3
    3  A    between atoms: C_3  and  C_4
    4  A    between atoms: C_4  and  C_5
    5  A    between atoms: C_5  and  C_6
    6  A    between atoms: C_6  and  C_7
    7  A    between atoms: C_7  and  C_8
    8  A    between atoms: C_8  and  C_9
    9  A    between atoms: C_9  and  C_10
   10  A    between atoms: C_10  and  C_12
   11  A    between atoms: C_12  and  C_13
   12  A    between atoms: C_16  and  O_17
   13  A    between atoms: C_18  and  O_19
   14  A    between atoms: O_19  and  C_20
                            x       y       z     vdW  Elec       q    Type
                         _______ _______ _______ _____ _____    ______ ____

>  <TORSDO>
F 12

>  <SCORE>
-5.462

>  <RMSD_LB>
8.586

>  <RMSD_UB>
11.429

$$$$
CHEMBL77304
 OpenBabel10162523533D

 22 22  0  0  0  0  0  0  0  0999 V2000
  134.5420  133.4710  146.4940 C   0  0  0  0  0  0  0  0  0  0  0  0
  133.9630  132.9350  145.5470 O   0  0  0  0  0  0  0  0  0  0  0  0
  134.2110  133.1450  147.9410 C   0  0  0  0  0  2  0  0  0  0  0  0
  132.9380  133.8530  148.3900 C   0  0  0  0  0  2  0  0  0  0  0  0
  132.6820  133.6770  149.8840 C   0  0  0  0  0  2  0  0  0  0  0  0
  133.9470  133.1770  150.5790 C   0  0  0  0  0  2  0  0  0  0  0  0
  134.1850  133.9150  151.8910 C   0  0  0  0  0  2  0  0  0  0  0  0
  135.6650  134.2480  152.0660 C   0  0  0  0  0  2  0  0  0  0  0  0
  136.3120  134.5500  150.7180 C   0  0  0  0  0  2  0  0  0  0  0  0
  135.2860  136.5370  149.5790 C   0  0  0  0  0  1  0  0  0  0  0  0
  136.4120  136.0540  150.4770 C   0  0  0  0  0  2  0  0  0  0  0  0
  135.6020  134.5280  146.2600 C   0  0  0  0  0  2  0  0  0  0  0  0
  135.0040  135.8860  146.0050 C   0  0  0  0  0  0  0  0  0  0  0  0
  133.6480  136.0130  145.6860 C   0  0  0  0  0  3  0  0  0  0  0  0
  133.0870  137.2700  145.4640 C   0  0  0  0  0  3  0  0  0  0  0  0
  133.8780  138.4190  145.5530 C   0  0  0  0  0  0  0  0  0  0  0  0
  135.2410  138.3180  145.8550 C   0  0  0  0  0  0  0  0  0  0  0  0
  135.7890  137.0440  146.0770 C   0  0  0  0  0  3  0  0  0  0  0  0
  133.2790  139.6280  145.3360 O   0  0  0  0  0  0  0  0  0  0  0  0
  133.7860  140.3560  145.0360 H   0  0  0  0  0  0  0  0  0  0  0  0
  136.1640  139.3220  145.9730 O   0  0  0  0  0  0  0  0  0  0  0  0
  136.9540  139.6390  144.8360 C   0  0  0  0  0  1  0  0  0  0  0  0
  1  3  1  0  0  0  0
  2  1  2  0  0  0  0
  3  4  1  0  0  0  0
  4  5  1  0  0  0  0
  5  6  1  0  0  0  0
  6  7  1  0  0  0  0
  7  8  1  0  0  0  0
  9  8  1  0  0  0  0
 10 11  1  0  0  0  0
 11  9  1  0  0  0  0
 12  1  1  0  0  0  0
 13 18  1  0  0  0  0
 13 12  1  0  0  0  0
 14 13  2  0  0  0  0
 15 16  2  0  0  0  0
 15 14  1  0  0  0  0
 16 17  1  0  0  0  0
 17 21  1  0  0  0  0
 17 18  2  0  0  0  0
 19 16  1  0  0  0  0
 20 19  1  0  0  0  0
 22 21  1  0  0  0  0
M  END
>  <MODEL>
7

>  <REMARK>
 VINA RESULT:    -5.403      2.697      5.535
 INTER + INTRA:         -10.556
 INTER:                  -8.818
 INTRA:                  -1.738
 UNBOUND:                -1.520
  Name = CHEMBL77304
  14 active torsions:
  status: ('A' for Active; 'I' for Inactive)
    1  A    between atoms: C_1  and  C_2
    2  A    between atoms: C_2  and  C_3
    3  A    between atoms: C_3  and  C_4
    4  A    between atoms: C_4  and  C_5
    5  A    between atoms: C_5  and  C_6
    6  A    between atoms: C_6  and  C_7
    7  A    between atoms: C_7  and  C_8
    8  A    between atoms: C_8  and  C_9
    9  A    between atoms: C_9  and  C_10
   10  A    between atoms: C_10  and  C_12
   11  A    between atoms: C_12  and  C_13
   12  A    between atoms: C_16  and  O_17
   13  A    between atoms: C_18  and  O_19
   14  A    between atoms: O_19  and  C_20
                            x       y       z     vdW  Elec       q    Type
                         _______ _______ _______ _____ _____    ______ ____

>  <TORSDO>
F 12

>  <SCORE>
-5.403

>  <RMSD_LB>
2.697

>  <RMSD_UB>
5.535

$$$$
CHEMBL77304
 OpenBabel10162523533D

 22 22  0  0  0  0  0  0  0  0999 V2000
  146.3580  138.4980  153.6670 C   0  0  0  0  0  0  0  0  0  0  0  0
  147.4200  138.3340  153.0640 O   0  0  0  0  0  0  0  0  0  0  0  0
  145.9180  139.8570  154.1860 C   0  0  0  0  0  2  0  0  0  0  0  0
  147.0800  140.8450  154.2040 C   0  0  0  0  0  2  0  0  0  0  0  0
  146.6910  142.1970  153.6160 C   0  0  0  0  0  2  0  0  0  0  0  0
  146.8520  142.1760  152.0970 C   0  0  0  0  0  2  0  0  0  0  0  0
  145.5240  142.4380  151.3970 C   0  0  0  0  0  2  0  0  0  0  0  0
  145.0010  141.1670  150.7320 C   0  0  0  0  0  2  0  0  0  0  0  0
  146.1500  140.2180  150.4030 C   0  0  0  0  0  2  0  0  0  0  0  0
  146.7500  138.6000  148.5810 C   0  0  0  0  0  1  0  0  0  0  0  0
  146.2830  140.0110  148.8970 C   0  0  0  0  0  2  0  0  0  0  0  0
  145.4410  137.3280  153.9610 C   0  0  0  0  0  2  0  0  0  0  0  0
  144.2190  137.3290  153.0800 C   0  0  0  0  0  0  0  0  0  0  0  0
  142.9660  137.6510  153.6100 C   0  0  0  0  0  3  0  0  0  0  0  0
  141.8340  137.6670  152.7950 C   0  0  0  0  0  3  0  0  0  0  0  0
  141.9420  137.3540  151.4370 C   0  0  0  0  0  0  0  0  0  0  0  0
  143.1820  137.0120  150.8860 C   0  0  0  0  0  0  0  0  0  0  0  0
  144.3110  137.0020  151.7210 C   0  0  0  0  0  3  0  0  0  0  0  0
  140.8050  137.3930  150.6790 O   0  0  0  0  0  0  0  0  0  0  0  0
  140.7410  136.8740  149.9020 H   0  0  0  0  0  0  0  0  0  0  0  0
  143.4740  136.6700  149.5930 O   0  0  0  0  0  0  0  0  0  0  0  0
  144.4840  135.6960  149.3730 C   0  0  0  0  0  1  0  0  0  0  0  0
  1 12  1  0  0  0  0
  1  3  1  0  0  0  0
  2  1  2  0  0  0  0
  3  4  1  0  0  0  0
  5  4  1  0  0  0  0
  6  5  1  0  0  0  0
  7  6  1  0  0  0  0
  8  7  1  0  0  0  0
  9  8  1  0  0  0  0
 10 11  1  0  0  0  0
 11  9  1  0  0  0  0
 13 14  1  0  0  0  0
 13 12  1  0  0  0  0
 15 14  2  0  0  0  0
 16 15  1  0  0  0  0
 17 16  2  0  0  0  0
 17 18  1  0  0  0  0
 18 13  2  0  0  0  0
 19 16  1  0  0  0  0
 20 19  1  0  0  0  0
 21 17  1  0  0  0  0
 22 21  1  0  0  0  0
M  END
>  <MODEL>
8

>  <REMARK>
 VINA RESULT:    -5.382      8.140     11.011
 INTER + INTRA:         -10.521
 INTER:                  -8.827
 INTRA:                  -1.694
 UNBOUND:                -1.520
  Name = CHEMBL77304
  14 active torsions:
  status: ('A' for Active; 'I' for Inactive)
    1  A    between atoms: C_1  and  C_2
    2  A    between atoms: C_2  and  C_3
    3  A    between atoms: C_3  and  C_4
    4  A    between atoms: C_4  and  C_5
    5  A    between atoms: C_5  and  C_6
    6  A    between atoms: C_6  and  C_7
    7  A    between atoms: C_7  and  C_8
    8  A    between atoms: C_8  and  C_9
    9  A    between atoms: C_9  and  C_10
   10  A    between atoms: C_10  and  C_12
   11  A    between atoms: C_12  and  C_13
   12  A    between atoms: C_16  and  O_17
   13  A    between atoms: C_18  and  O_19
   14  A    between atoms: O_19  and  C_20
                            x       y       z     vdW  Elec       q    Type
                         _______ _______ _______ _____ _____    ______ ____

>  <TORSDO>
F 12

>  <SCORE>
-5.382

>  <RMSD_LB>
8.140

>  <RMSD_UB>
11.011

$$$$
CHEMBL77304
 OpenBabel10162523533D

 22 22  0  0  0  0  0  0  0  0999 V2000
  143.6730  138.2010  150.8770 C   0  0  0  0  0  0  0  0  0  0  0  0
  143.4990  138.7490  149.7870 O   0  0  0  0  0  0  0  0  0  0  0  0
  144.7590  138.6410  151.8450 C   0  0  0  0  0  2  0  0  0  0  0  0
  146.0610  137.8900  151.5940 C   0  0  0  0  0  2  0  0  0  0  0  0
  146.2930  136.7860  152.6200 C   0  0  0  0  0  2  0  0  0  0  0  0
  145.7620  137.2180  153.9860 C   0  0  0  0  0  2  0  0  0  0  0  0
  146.8730  137.8030  154.8510 C   0  0  0  0  0  2  0  0  0  0  0  0
  146.7430  139.3220  154.9480 C   0  0  0  0  0  2  0  0  0  0  0  0
  148.0170  140.0040  154.4580 C   0  0  0  0  0  2  0  0  0  0  0  0
  146.4230  141.8310  153.8130 C   0  0  0  0  0  1  0  0  0  0  0  0
  147.7030  141.1000  153.4440 C   0  0  0  0  0  2  0  0  0  0  0  0
  142.8260  137.0160  151.2970 C   0  0  0  0  0  2  0  0  0  0  0  0
  141.5530  137.4410  151.9800 C   0  0  0  0  0  0  0  0  0  0  0  0
  141.5780  137.8930  153.3040 C   0  0  0  0  0  3  0  0  0  0  0  0
  140.4040  138.3010  153.9360 C   0  0  0  0  0  3  0  0  0  0  0  0
  139.1850  138.2570  153.2510 C   0  0  0  0  0  0  0  0  0  0  0  0
  139.1310  137.7940  151.9310 C   0  0  0  0  0  0  0  0  0  0  0  0
  140.3240  137.3890  151.3100 C   0  0  0  0  0  3  0  0  0  0  0  0
  138.0650  138.6770  153.9110 O   0  0  0  0  0  0  0  0  0  0  0  0
  137.8700  138.3420  154.7640 H   0  0  0  0  0  0  0  0  0  0  0  0
  138.0390  137.6730  151.1160 O   0  0  0  0  0  0  0  0  0  0  0  0
  138.1520  136.8420  149.9690 C   0  0  0  0  0  1  0  0  0  0  0  0
  1 12  1  0  0  0  0
  1  3  1  0  0  0  0
  2  1  2  0  0  0  0
  4  3  1  0  0  0  0
  4  5  1  0  0  0  0
  5  6  1  0  0  0  0
  6  7  1  0  0  0  0
  7  8  1  0  0  0  0
  9  8  1  0  0  0  0
 11 10  1  0  0  0  0
 11  9  1  0  0  0  0
 12 13  1  0  0  0  0
 13 14  1  0  0  0  0
 14 15  2  0  0  0  0
 16 19  1  0  0  0  0
 16 15  1  0  0  0  0
 17 16  2  0  0  0  0
 18 17  1  0  0  0  0
 18 13  2  0  0  0  0
 19 20  1  0  0  0  0
 21 17  1  0  0  0  0
 22 21  1  0  0  0  0
M  END
>  <MODEL>
9

>  <REMARK>
 VINA RESULT:    -5.183      7.207      9.765
 INTER + INTRA:         -10.188
 INTER:                  -8.668
 INTRA:                  -1.520
 UNBOUND:                -1.520
  Name = CHEMBL77304
  14 active torsions:
  status: ('A' for Active; 'I' for Inactive)
    1  A    between atoms: C_1  and  C_2
    2  A    between atoms: C_2  and  C_3
    3  A    between atoms: C_3  and  C_4
    4  A    between atoms: C_4  and  C_5
    5  A    between atoms: C_5  and  C_6
    6  A    between atoms: C_6  and  C_7
    7  A    between atoms: C_7  and  C_8
    8  A    between atoms: C_8  and  C_9
    9  A    between atoms: C_9  and  C_10
   10  A    between atoms: C_10  and  C_12
   11  A    between atoms: C_12  and  C_13
   12  A    between atoms: C_16  and  O_17
   13  A    between atoms: C_18  and  O_19
   14  A    between atoms: O_19  and  C_20
                            x       y       z     vdW  Elec       q    Type
                         _______ _______ _______ _____ _____    ______ ____

>  <TORSDO>
F 12

>  <SCORE>
-5.183

>  <RMSD_LB>
7.207

>  <RMSD_UB>
9.765

$$$$
