CHEMBL4519764
 OpenBabel10172500123D

 25 26  0  0  0  0  0  0  0  0999 V2000
  135.3980  135.5590  154.1510 N   0  0  0  0  0  0  0  0  0  0  0  0
  134.0790  135.2840  153.8870 C   0  0  0  0  0  0  0  0  0  0  0  0
  133.2080  135.1790  154.7400 O   0  0  0  0  0  0  0  0  0  0  0  0
  136.0260  135.6490  153.3990 H   0  0  0  0  0  0  0  0  0  0  0  0
  133.8030  135.1180  152.4370 C   0  0  0  0  0  3  0  0  0  0  0  0
  134.0110  133.9310  151.8440 C   0  0  0  0  0  3  0  0  0  0  0  0
  133.7870  133.6680  150.4130 C   0  0  0  0  0  0  0  0  0  0  0  0
  134.3520  132.5650  149.7530 C   0  0  0  0  0  3  0  0  0  0  0  0
  134.0940  132.3330  148.3970 C   0  0  0  0  0  3  0  0  0  0  0  0
  133.2580  133.1990  147.7020 C   0  0  0  0  0  0  0  0  0  0  0  0
  132.6730  134.2840  148.3400 C   0  0  0  0  0  3  0  0  0  0  0  0
  132.9320  134.5150  149.6930 C   0  0  0  0  0  3  0  0  0  0  0  0
  132.9790  133.0070  146.3810 O   0  0  0  0  0  0  0  0  0  0  0  0
  132.5110  133.6630  145.9020 H   0  0  0  0  0  0  0  0  0  0  0  0
  135.8930  135.7170  155.5010 C   0  0  0  0  0  2  0  0  0  0  0  0
  138.6590  138.2390  154.7030 C   0  0  0  0  0  0  0  0  0  0  0  0
  137.4780  137.4910  154.6290 C   0  0  0  0  0  3  0  0  0  0  0  0
  137.1970  136.4770  155.5640 C   0  0  0  0  0  0  0  0  0  0  0  0
  138.1200  136.2290  156.5900 C   0  0  0  0  0  3  0  0  0  0  0  0
  139.3000  136.9700  156.6770 C   0  0  0  0  0  3  0  0  0  0  0  0
  139.5640  137.9650  155.7360 C   0  0  0  0  0  0  0  0  0  0  0  0
  139.4380  138.8650  152.5390 C   0  0  0  0  0  1  0  0  0  0  0  0
  139.0070  139.2440  153.8390 O   0  0  0  0  0  0  0  0  0  0  0  0
  140.7220  138.6930  155.8230 O   0  0  0  0  0  0  0  0  0  0  0  0
  141.2340  138.6670  156.6070 H   0  0  0  0  0  0  0  0  0  0  0  0
  1 15  1  0  0  0  0
  2  1  1  0  0  0  0
  2  3  2  0  0  0  0
  4  1  1  0  0  0  0
  5  2  1  0  0  0  0
  6  5  2  0  0  0  0
  7  6  1  0  0  0  0
  8  7  1  0  0  0  0
  9  8  2  0  0  0  0
 10 11  2  0  0  0  0
 10  9  1  0  0  0  0
 11 12  1  0  0  0  0
 12  7  2  0  0  0  0
 13 10  1  0  0  0  0
 14 13  1  0  0  0  0
 15 18  1  0  0  0  0
 16 21  1  0  0  0  0
 17 16  2  0  0  0  0
 17 18  1  0  0  0  0
 18 19  2  0  0  0  0
 19 20  1  0  0  0  0
 21 24  1  0  0  0  0
 21 20  2  0  0  0  0
 22 23  1  0  0  0  0
 23 16  1  0  0  0  0
 24 25  1  0  0  0  0
M  END
>  <MODEL>
1

>  <REMARK>
 VINA RESULT:    -7.838      0.000      0.000
 INTER + INTRA:         -11.071
 INTER:                 -10.589
 INTRA:                  -0.482
 UNBOUND:                -0.484
  Name = CHEMBL4519764
  8 active torsions:
  status: ('A' for Active; 'I' for Inactive)
    1  A    between atoms: C_1  and  O_2
    2  A    between atoms: O_2  and  C_3
    3  A    between atoms: C_5  and  C_6
    4  A    between atoms: C_6  and  N_7
    5  A    between atoms: C_8  and  C_10
    6  A    between atoms: C_11  and  C_12
    7  A    between atoms: C_15  and  O_16
    8  A    between atoms: C_21  and  O_22
                            x       y       z     vdW  Elec       q    Type
                         _______ _______ _______ _____ _____    ______ ____

>  <TORSDO>
F 7

>  <SCORE>
-7.838

>  <RMSD_LB>
0.000

>  <RMSD_UB>
0.000

$$$$
CHEMBL4519764
 OpenBabel10172500123D

 25 26  0  0  0  0  0  0  0  0999 V2000
  138.8190  137.4730  155.1930 N   0  0  0  0  0  0  0  0  0  0  0  0
  139.5280  138.4850  154.5950 C   0  0  0  0  0  0  0  0  0  0  0  0
  139.0900  139.6090  154.3870 O   0  0  0  0  0  0  0  0  0  0  0  0
  139.2600  136.6060  155.3420 H   0  0  0  0  0  0  0  0  0  0  0  0
  140.9030  138.0780  154.2110 C   0  0  0  0  0  3  0  0  0  0  0  0
  141.2200  137.9120  152.9170 C   0  0  0  0  0  3  0  0  0  0  0  0
  142.5460  137.4930  152.4350 C   0  0  0  0  0  0  0  0  0  0  0  0
  142.7670  137.0680  151.1150 C   0  0  0  0  0  3  0  0  0  0  0  0
  144.0490  136.7030  150.6860 C   0  0  0  0  0  3  0  0  0  0  0  0
  145.1140  136.7770  151.5740 C   0  0  0  0  0  0  0  0  0  0  0  0
  144.9220  137.2140  152.8770 C   0  0  0  0  0  3  0  0  0  0  0  0
  143.6420  137.5760  153.3050 C   0  0  0  0  0  3  0  0  0  0  0  0
  146.3780  136.4340  151.1950 O   0  0  0  0  0  0  0  0  0  0  0  0
  147.0980  136.9980  151.4010 H   0  0  0  0  0  0  0  0  0  0  0  0
  137.4430  137.6410  155.6080 C   0  0  0  0  0  2  0  0  0  0  0  0
  134.8490  134.8270  155.6050 C   0  0  0  0  0  0  0  0  0  0  0  0
  135.7240  135.8300  156.0380 C   0  0  0  0  0  3  0  0  0  0  0  0
  136.5450  136.5240  155.1300 C   0  0  0  0  0  0  0  0  0  0  0  0
  136.4660  136.2050  153.7670 C   0  0  0  0  0  3  0  0  0  0  0  0
  135.5940  135.2090  153.3210 C   0  0  0  0  0  3  0  0  0  0  0  0
  134.7950  134.5260  154.2380 C   0  0  0  0  0  0  0  0  0  0  0  0
  133.8510  134.5680  157.7540 C   0  0  0  0  0  1  0  0  0  0  0  0
  134.0150  134.1070  156.4200 O   0  0  0  0  0  0  0  0  0  0  0  0
  133.9400  133.5500  153.8000 O   0  0  0  0  0  0  0  0  0  0  0  0
  133.8530  132.7520  154.2820 H   0  0  0  0  0  0  0  0  0  0  0  0
  1  4  1  0  0  0  0
  1 15  1  0  0  0  0
  2  1  1  0  0  0  0
  3  2  2  0  0  0  0
  5  2  1  0  0  0  0
  6  5  2  0  0  0  0
  7  6  1  0  0  0  0
  7 12  1  0  0  0  0
  8  7  2  0  0  0  0
  9  8  1  0  0  0  0
  9 10  2  0  0  0  0
 10 11  1  0  0  0  0
 11 12  2  0  0  0  0
 13 14  1  0  0  0  0
 13 10  1  0  0  0  0
 16 17  1  0  0  0  0
 16 23  1  0  0  0  0
 18 15  1  0  0  0  0
 18 17  2  0  0  0  0
 19 18  1  0  0  0  0
 20 19  2  0  0  0  0
 20 21  1  0  0  0  0
 21 16  2  0  0  0  0
 23 22  1  0  0  0  0
 24 21  1  0  0  0  0
 24 25  1  0  0  0  0
M  END
>  <MODEL>
2

>  <REMARK>
 VINA RESULT:    -7.330      3.551      8.480
 INTER + INTRA:         -10.385
 INTER:                  -9.904
 INTRA:                  -0.481
 UNBOUND:                -0.484
  Name = CHEMBL4519764
  8 active torsions:
  status: ('A' for Active; 'I' for Inactive)
    1  A    between atoms: C_1  and  O_2
    2  A    between atoms: O_2  and  C_3
    3  A    between atoms: C_5  and  C_6
    4  A    between atoms: C_6  and  N_7
    5  A    between atoms: C_8  and  C_10
    6  A    between atoms: C_11  and  C_12
    7  A    between atoms: C_15  and  O_16
    8  A    between atoms: C_21  and  O_22
                            x       y       z     vdW  Elec       q    Type
                         _______ _______ _______ _____ _____    ______ ____

>  <TORSDO>
F 7

>  <SCORE>
-7.330

>  <RMSD_LB>
3.551

>  <RMSD_UB>
8.480

$$$$
CHEMBL4519764
 OpenBabel10172500123D

 25 26  0  0  0  0  0  0  0  0999 V2000
  134.6340  135.2600  154.2510 N   0  0  0  0  0  0  0  0  0  0  0  0
  134.2900  134.0120  153.7940 C   0  0  0  0  0  0  0  0  0  0  0  0
  134.3000  132.9970  154.4770 O   0  0  0  0  0  0  0  0  0  0  0  0
  134.5730  136.0260  153.6360 H   0  0  0  0  0  0  0  0  0  0  0  0
  133.9020  134.0090  152.3600 C   0  0  0  0  0  3  0  0  0  0  0  0
  134.8420  133.8840  151.4090 C   0  0  0  0  0  3  0  0  0  0  0  0
  134.5640  133.8880  149.9640 C   0  0  0  0  0  0  0  0  0  0  0  0
  135.4870  134.3690  149.0210 C   0  0  0  0  0  3  0  0  0  0  0  0
  135.1980  134.3320  147.6520 C   0  0  0  0  0  3  0  0  0  0  0  0
  133.9890  133.7980  147.2230 C   0  0  0  0  0  0  0  0  0  0  0  0
  133.0710  133.2990  148.1350 C   0  0  0  0  0  3  0  0  0  0  0  0
  133.3590  133.3380  149.5020 C   0  0  0  0  0  3  0  0  0  0  0  0
  133.6700  133.7400  145.8980 O   0  0  0  0  0  0  0  0  0  0  0  0
  134.3440  133.8090  145.2510 H   0  0  0  0  0  0  0  0  0  0  0  0
  135.0840  135.4840  155.6080 C   0  0  0  0  0  2  0  0  0  0  0  0
  138.0880  137.3960  157.0100 C   0  0  0  0  0  0  0  0  0  0  0  0
  136.9040  136.6540  156.9250 C   0  0  0  0  0  3  0  0  0  0  0  0
  136.3320  136.3320  155.6810 C   0  0  0  0  0  0  0  0  0  0  0  0
  136.9770  136.7570  154.5100 C   0  0  0  0  0  3  0  0  0  0  0  0
  138.1600  137.4940  154.5800 C   0  0  0  0  0  3  0  0  0  0  0  0
  138.7070  137.8110  155.8230 C   0  0  0  0  0  0  0  0  0  0  0  0
  137.8850  138.0360  159.2970 C   0  0  0  0  0  1  0  0  0  0  0  0
  138.7130  137.7480  158.1780 O   0  0  0  0  0  0  0  0  0  0  0  0
  139.8690  138.5330  155.8910 O   0  0  0  0  0  0  0  0  0  0  0  0
  139.9710  139.1970  156.5450 H   0  0  0  0  0  0  0  0  0  0  0  0
  1 15  1  0  0  0  0
  2  1  1  0  0  0  0
  2  3  2  0  0  0  0
  4  1  1  0  0  0  0
  5  2  1  0  0  0  0
  6  5  2  0  0  0  0
  7  6  1  0  0  0  0
  8  7  2  0  0  0  0
  9  8  1  0  0  0  0
 10  9  2  0  0  0  0
 10 11  1  0  0  0  0
 11 12  2  0  0  0  0
 12  7  1  0  0  0  0
 13 10  1  0  0  0  0
 14 13  1  0  0  0  0
 15 18  1  0  0  0  0
 16 23  1  0  0  0  0
 17 16  1  0  0  0  0
 18 17  2  0  0  0  0
 19 20  2  0  0  0  0
 19 18  1  0  0  0  0
 20 21  1  0  0  0  0
 21 24  1  0  0  0  0
 21 16  2  0  0  0  0
 23 22  1  0  0  0  0
 24 25  1  0  0  0  0
M  END
>  <MODEL>
3

>  <REMARK>
 VINA RESULT:    -7.318      1.540      2.382
 INTER + INTRA:         -10.368
 INTER:                  -9.849
 INTRA:                  -0.520
 UNBOUND:                -0.484
  Name = CHEMBL4519764
  8 active torsions:
  status: ('A' for Active; 'I' for Inactive)
    1  A    between atoms: C_1  and  O_2
    2  A    between atoms: O_2  and  C_3
    3  A    between atoms: C_5  and  C_6
    4  A    between atoms: C_6  and  N_7
    5  A    between atoms: C_8  and  C_10
    6  A    between atoms: C_11  and  C_12
    7  A    between atoms: C_15  and  O_16
    8  A    between atoms: C_21  and  O_22
                            x       y       z     vdW  Elec       q    Type
                         _______ _______ _______ _____ _____    ______ ____

>  <TORSDO>
F 7

>  <SCORE>
-7.318

>  <RMSD_LB>
1.540

>  <RMSD_UB>
2.382

$$$$
CHEMBL4519764
 OpenBabel10172500123D

 25 26  0  0  0  0  0  0  0  0999 V2000
  134.4710  135.0950  155.2570 N   0  0  0  0  0  0  0  0  0  0  0  0
  134.2880  134.1680  154.2620 C   0  0  0  0  0  0  0  0  0  0  0  0
  134.2960  132.9560  154.4330 O   0  0  0  0  0  0  0  0  0  0  0  0
  134.4240  136.0520  155.0320 H   0  0  0  0  0  0  0  0  0  0  0  0
  134.0790  134.7870  152.9280 C   0  0  0  0  0  3  0  0  0  0  0  0
  133.6540  134.0390  151.8970 C   0  0  0  0  0  3  0  0  0  0  0  0
  133.4350  134.5510  150.5350 C   0  0  0  0  0  0  0  0  0  0  0  0
  133.7830  135.8580  150.1580 C   0  0  0  0  0  3  0  0  0  0  0  0
  133.5850  136.3010  148.8450 C   0  0  0  0  0  3  0  0  0  0  0  0
  133.0510  135.4310  147.9020 C   0  0  0  0  0  0  0  0  0  0  0  0
  132.7200  134.1280  148.2480 C   0  0  0  0  0  3  0  0  0  0  0  0
  132.9160  133.6870  149.5600 C   0  0  0  0  0  3  0  0  0  0  0  0
  132.8460  135.8210  146.6120 O   0  0  0  0  0  0  0  0  0  0  0  0
  133.5650  135.8510  146.0120 H   0  0  0  0  0  0  0  0  0  0  0  0
  134.7320  134.7090  156.6270 C   0  0  0  0  0  2  0  0  0  0  0  0
  137.2720  137.5010  157.2590 C   0  0  0  0  0  0  0  0  0  0  0  0
  136.4460  136.5740  156.6120 C   0  0  0  0  0  3  0  0  0  0  0  0
  135.6590  135.6650  157.3410 C   0  0  0  0  0  0  0  0  0  0  0  0
  135.7020  135.7050  158.7420 C   0  0  0  0  0  3  0  0  0  0  0  0
  136.5180  136.6270  159.4000 C   0  0  0  0  0  3  0  0  0  0  0  0
  137.2980  137.5140  158.6590 C   0  0  0  0  0  0  0  0  0  0  0  0
  138.1030  138.3830  155.2060 C   0  0  0  0  0  1  0  0  0  0  0  0
  138.0650  138.4220  156.6260 O   0  0  0  0  0  0  0  0  0  0  0  0
  138.0980  138.4190  159.3060 O   0  0  0  0  0  0  0  0  0  0  0  0
  138.1130  139.3140  159.0280 H   0  0  0  0  0  0  0  0  0  0  0  0
  1 15  1  0  0  0  0
  2  3  2  0  0  0  0
  2  1  1  0  0  0  0
  4  1  1  0  0  0  0
  5  2  1  0  0  0  0
  6  5  2  0  0  0  0
  7  6  1  0  0  0  0
  8  7  1  0  0  0  0
  9  8  2  0  0  0  0
 10 11  2  0  0  0  0
 10  9  1  0  0  0  0
 11 12  1  0  0  0  0
 12  7  2  0  0  0  0
 13 10  1  0  0  0  0
 14 13  1  0  0  0  0
 15 18  1  0  0  0  0
 16 21  1  0  0  0  0
 17 16  2  0  0  0  0
 17 18  1  0  0  0  0
 18 19  2  0  0  0  0
 19 20  1  0  0  0  0
 21 24  1  0  0  0  0
 21 20  2  0  0  0  0
 22 23  1  0  0  0  0
 23 16  1  0  0  0  0
 25 24  1  0  0  0  0
M  END
>  <MODEL>
4

>  <REMARK>
 VINA RESULT:    -7.308      2.085      2.653
 INTER + INTRA:         -10.355
 INTER:                  -9.896
 INTRA:                  -0.460
 UNBOUND:                -0.484
  Name = CHEMBL4519764
  8 active torsions:
  status: ('A' for Active; 'I' for Inactive)
    1  A    between atoms: C_1  and  O_2
    2  A    between atoms: O_2  and  C_3
    3  A    between atoms: C_5  and  C_6
    4  A    between atoms: C_6  and  N_7
    5  A    between atoms: C_8  and  C_10
    6  A    between atoms: C_11  and  C_12
    7  A    between atoms: C_15  and  O_16
    8  A    between atoms: C_21  and  O_22
                            x       y       z     vdW  Elec       q    Type
                         _______ _______ _______ _____ _____    ______ ____

>  <TORSDO>
F 7

>  <SCORE>
-7.308

>  <RMSD_LB>
2.085

>  <RMSD_UB>
2.653

$$$$
CHEMBL4519764
 OpenBabel10172500123D

 25 26  0  0  0  0  0  0  0  0999 V2000
  135.0240  134.9890  152.1960 N   0  0  0  0  0  0  0  0  0  0  0  0
  135.1210  135.8910  153.2260 C   0  0  0  0  0  0  0  0  0  0  0  0
  134.2030  136.1840  153.9810 O   0  0  0  0  0  0  0  0  0  0  0  0
  135.8220  134.7960  151.6540 H   0  0  0  0  0  0  0  0  0  0  0  0
  136.4740  136.4950  153.3390 C   0  0  0  0  0  3  0  0  0  0  0  0
  137.1300  136.8870  152.2340 C   0  0  0  0  0  3  0  0  0  0  0  0
  138.4770  137.4770  152.2360 C   0  0  0  0  0  0  0  0  0  0  0  0
  139.3240  137.4260  151.1170 C   0  0  0  0  0  3  0  0  0  0  0  0
  140.5900  138.0230  151.1480 C   0  0  0  0  0  3  0  0  0  0  0  0
  141.0050  138.6860  152.2960 C   0  0  0  0  0  0  0  0  0  0  0  0
  140.1770  138.7670  153.4070 C   0  0  0  0  0  3  0  0  0  0  0  0
  138.9140  138.1690  153.3750 C   0  0  0  0  0  3  0  0  0  0  0  0
  142.2280  139.2840  152.3660 O   0  0  0  0  0  0  0  0  0  0  0  0
  143.0040  138.7590  152.4130 H   0  0  0  0  0  0  0  0  0  0  0  0
  133.7830  134.3140  151.8820 C   0  0  0  0  0  2  0  0  0  0  0  0
  133.0500  134.7860  148.1560 C   0  0  0  0  0  0  0  0  0  0  0  0
  133.1530  135.0200  149.5320 C   0  0  0  0  0  3  0  0  0  0  0  0
  133.6280  134.0260  150.4070 C   0  0  0  0  0  0  0  0  0  0  0  0
  134.0140  132.7860  149.8770 C   0  0  0  0  0  3  0  0  0  0  0  0
  133.9200  132.5420  148.5060 C   0  0  0  0  0  3  0  0  0  0  0  0
  133.4390  133.5370  147.6550 C   0  0  0  0  0  0  0  0  0  0  0  0
  132.6460  137.0700  147.6050 C   0  0  0  0  0  1  0  0  0  0  0  0
  132.6030  135.6980  147.2360 O   0  0  0  0  0  0  0  0  0  0  0  0
  133.3480  133.2960  146.3100 O   0  0  0  0  0  0  0  0  0  0  0  0
  134.0080  132.7910  145.8780 H   0  0  0  0  0  0  0  0  0  0  0  0
  1  2  1  0  0  0  0
  2  5  1  0  0  0  0
  2  3  2  0  0  0  0
  4  1  1  0  0  0  0
  6  7  1  0  0  0  0
  6  5  2  0  0  0  0
  7 12  1  0  0  0  0
  8  9  1  0  0  0  0
  8  7  2  0  0  0  0
  9 10  2  0  0  0  0
 10 13  1  0  0  0  0
 10 11  1  0  0  0  0
 12 11  2  0  0  0  0
 13 14  1  0  0  0  0
 15  1  1  0  0  0  0
 16 17  1  0  0  0  0
 17 18  2  0  0  0  0
 18 15  1  0  0  0  0
 19 18  1  0  0  0  0
 20 19  2  0  0  0  0
 21 16  2  0  0  0  0
 21 20  1  0  0  0  0
 23 22  1  0  0  0  0
 23 16  1  0  0  0  0
 24 21  1  0  0  0  0
 25 24  1  0  0  0  0
M  END
>  <MODEL>
5

>  <REMARK>
 VINA RESULT:    -7.247      2.004      8.270
 INTER + INTRA:         -10.273
 INTER:                  -9.739
 INTRA:                  -0.534
 UNBOUND:                -0.484
  Name = CHEMBL4519764
  8 active torsions:
  status: ('A' for Active; 'I' for Inactive)
    1  A    between atoms: C_1  and  O_2
    2  A    between atoms: O_2  and  C_3
    3  A    between atoms: C_5  and  C_6
    4  A    between atoms: C_6  and  N_7
    5  A    between atoms: C_8  and  C_10
    6  A    between atoms: C_11  and  C_12
    7  A    between atoms: C_15  and  O_16
    8  A    between atoms: C_21  and  O_22
                            x       y       z     vdW  Elec       q    Type
                         _______ _______ _______ _____ _____    ______ ____

>  <TORSDO>
F 7

>  <SCORE>
-7.247

>  <RMSD_LB>
2.004

>  <RMSD_UB>
8.270

$$$$
CHEMBL4519764
 OpenBabel10172500123D

 25 26  0  0  0  0  0  0  0  0999 V2000
  143.0500  139.5680  152.2090 N   0  0  0  0  0  0  0  0  0  0  0  0
  142.3150  138.5610  151.6330 C   0  0  0  0  0  0  0  0  0  0  0  0
  142.5180  138.1080  150.5140 O   0  0  0  0  0  0  0  0  0  0  0  0
  142.8300  139.8540  153.1250 H   0  0  0  0  0  0  0  0  0  0  0  0
  141.2240  138.0670  152.5120 C   0  0  0  0  0  3  0  0  0  0  0  0
  140.9860  138.6660  153.6900 C   0  0  0  0  0  3  0  0  0  0  0  0
  139.9440  138.2420  154.6390 C   0  0  0  0  0  0  0  0  0  0  0  0
  138.5950  138.1170  154.2700 C   0  0  0  0  0  3  0  0  0  0  0  0
  137.6370  137.6850  155.1950 C   0  0  0  0  0  3  0  0  0  0  0  0
  138.0300  137.3630  156.4880 C   0  0  0  0  0  0  0  0  0  0  0  0
  139.3610  137.4590  156.8680 C   0  0  0  0  0  3  0  0  0  0  0  0
  140.3170  137.8930  155.9450 C   0  0  0  0  0  3  0  0  0  0  0  0
  137.1290  136.9340  157.4170 O   0  0  0  0  0  0  0  0  0  0  0  0
  137.3570  136.2410  158.0050 H   0  0  0  0  0  0  0  0  0  0  0  0
  144.1350  140.2220  151.5100 C   0  0  0  0  0  2  0  0  0  0  0  0
  146.7770  140.0870  154.2760 C   0  0  0  0  0  0  0  0  0  0  0  0
  145.6960  139.7560  153.4500 C   0  0  0  0  0  3  0  0  0  0  0  0
  145.2680  140.6210  152.4260 C   0  0  0  0  0  0  0  0  0  0  0  0
  145.9530  141.8290  152.2320 C   0  0  0  0  0  3  0  0  0  0  0  0
  147.0340  142.1700  153.0460 C   0  0  0  0  0  3  0  0  0  0  0  0
  147.4380  141.3030  154.0610 C   0  0  0  0  0  0  0  0  0  0  0  0
  147.3240  137.9020  155.0550 C   0  0  0  0  0  1  0  0  0  0  0  0
  147.2600  139.3020  155.2900 O   0  0  0  0  0  0  0  0  0  0  0  0
  148.5010  141.6380  154.8580 O   0  0  0  0  0  0  0  0  0  0  0  0
  149.2400  142.0820  154.4920 H   0  0  0  0  0  0  0  0  0  0  0  0
  1  4  1  0  0  0  0
  2  1  1  0  0  0  0
  2  5  1  0  0  0  0
  3  2  2  0  0  0  0
  5  6  2  0  0  0  0
  6  7  1  0  0  0  0
  7 12  1  0  0  0  0
  8  7  2  0  0  0  0
  8  9  1  0  0  0  0
  9 10  2  0  0  0  0
 10 11  1  0  0  0  0
 10 13  1  0  0  0  0
 12 11  2  0  0  0  0
 13 14  1  0  0  0  0
 15  1  1  0  0  0  0
 15 18  1  0  0  0  0
 16 23  1  0  0  0  0
 17 16  2  0  0  0  0
 18 17  1  0  0  0  0
 19 18  2  0  0  0  0
 19 20  1  0  0  0  0
 20 21  2  0  0  0  0
 21 16  1  0  0  0  0
 21 24  1  0  0  0  0
 22 23  1  0  0  0  0
 25 24  1  0  0  0  0
M  END
>  <MODEL>
6

>  <REMARK>
 VINA RESULT:    -7.043      6.143      9.507
 INTER + INTRA:          -9.998
 INTER:                  -9.426
 INTRA:                  -0.571
 UNBOUND:                -0.484
  Name = CHEMBL4519764
  8 active torsions:
  status: ('A' for Active; 'I' for Inactive)
    1  A    between atoms: C_1  and  O_2
    2  A    between atoms: O_2  and  C_3
    3  A    between atoms: C_5  and  C_6
    4  A    between atoms: C_6  and  N_7
    5  A    between atoms: C_8  and  C_10
    6  A    between atoms: C_11  and  C_12
    7  A    between atoms: C_15  and  O_16
    8  A    between atoms: C_21  and  O_22
                            x       y       z     vdW  Elec       q    Type
                         _______ _______ _______ _____ _____    ______ ____

>  <TORSDO>
F 7

>  <SCORE>
-7.043

>  <RMSD_LB>
6.143

>  <RMSD_UB>
9.507

$$$$
CHEMBL4519764
 OpenBabel10172500123D

 25 26  0  0  0  0  0  0  0  0999 V2000
  138.1040  137.5320  151.4090 N   0  0  0  0  0  0  0  0  0  0  0  0
  139.3770  137.4070  150.9110 C   0  0  0  0  0  0  0  0  0  0  0  0
  139.6560  136.8630  149.8510 O   0  0  0  0  0  0  0  0  0  0  0  0
  137.9700  138.0070  152.2610 H   0  0  0  0  0  0  0  0  0  0  0  0
  140.4060  138.0010  151.8020 C   0  0  0  0  0  3  0  0  0  0  0  0
  141.5690  137.3620  152.0080 C   0  0  0  0  0  3  0  0  0  0  0  0
  142.6430  137.8560  152.8850 C   0  0  0  0  0  0  0  0  0  0  0  0
  143.9680  137.4020  152.7820 C   0  0  0  0  0  3  0  0  0  0  0  0
  144.9680  137.9160  153.6160 C   0  0  0  0  0  3  0  0  0  0  0  0
  144.6460  138.8960  154.5460 C   0  0  0  0  0  0  0  0  0  0  0  0
  143.3470  139.3740  154.6510 C   0  0  0  0  0  3  0  0  0  0  0  0
  142.3490  138.8590  153.8190 C   0  0  0  0  0  3  0  0  0  0  0  0
  145.5900  139.4250  155.3740 O   0  0  0  0  0  0  0  0  0  0  0  0
  146.2150  138.8640  155.7910 H   0  0  0  0  0  0  0  0  0  0  0  0
  136.9540  136.9850  150.7220 C   0  0  0  0  0  2  0  0  0  0  0  0
  134.5290  134.2180  151.7750 C   0  0  0  0  0  0  0  0  0  0  0  0
  135.2450  135.1350  150.9970 C   0  0  0  0  0  3  0  0  0  0  0  0
  136.1500  136.0400  151.5830 C   0  0  0  0  0  0  0  0  0  0  0  0
  136.3370  136.0040  152.9730 C   0  0  0  0  0  3  0  0  0  0  0  0
  135.6320  135.0920  153.7600 C   0  0  0  0  0  3  0  0  0  0  0  0
  134.7340  134.2090  153.1610 C   0  0  0  0  0  0  0  0  0  0  0  0
  132.8180  133.7090  150.1960 C   0  0  0  0  0  1  0  0  0  0  0  0
  133.6350  133.3020  151.2860 O   0  0  0  0  0  0  0  0  0  0  0  0
  134.0430  133.3130  153.9340 O   0  0  0  0  0  0  0  0  0  0  0  0
  133.1750  133.5160  154.2240 H   0  0  0  0  0  0  0  0  0  0  0  0
  1  4  1  0  0  0  0
  2  1  1  0  0  0  0
  2  5  1  0  0  0  0
  3  2  2  0  0  0  0
  5  6  2  0  0  0  0
  6  7  1  0  0  0  0
  7 12  1  0  0  0  0
  8  7  2  0  0  0  0
  8  9  1  0  0  0  0
  9 10  2  0  0  0  0
 10 11  1  0  0  0  0
 10 13  1  0  0  0  0
 12 11  2  0  0  0  0
 13 14  1  0  0  0  0
 15  1  1  0  0  0  0
 15 18  1  0  0  0  0
 16 21  1  0  0  0  0
 17 18  1  0  0  0  0
 17 16  2  0  0  0  0
 18 19  2  0  0  0  0
 19 20  1  0  0  0  0
 21 20  2  0  0  0  0
 21 24  1  0  0  0  0
 22 23  1  0  0  0  0
 23 16  1  0  0  0  0
 24 25  1  0  0  0  0
M  END
>  <MODEL>
7

>  <REMARK>
 VINA RESULT:    -6.948      3.425      9.209
 INTER + INTRA:          -9.869
 INTER:                  -9.374
 INTRA:                  -0.496
 UNBOUND:                -0.484
  Name = CHEMBL4519764
  8 active torsions:
  status: ('A' for Active; 'I' for Inactive)
    1  A    between atoms: C_1  and  O_2
    2  A    between atoms: O_2  and  C_3
    3  A    between atoms: C_5  and  C_6
    4  A    between atoms: C_6  and  N_7
    5  A    between atoms: C_8  and  C_10
    6  A    between atoms: C_11  and  C_12
    7  A    between atoms: C_15  and  O_16
    8  A    between atoms: C_21  and  O_22
                            x       y       z     vdW  Elec       q    Type
                         _______ _______ _______ _____ _____    ______ ____

>  <TORSDO>
F 7

>  <SCORE>
-6.948

>  <RMSD_LB>
3.425

>  <RMSD_UB>
9.209

$$$$
CHEMBL4519764
 OpenBabel10172500123D

 25 26  0  0  0  0  0  0  0  0999 V2000
  136.9380  136.7410  153.8500 N   0  0  0  0  0  0  0  0  0  0  0  0
  137.3860  136.9940  152.5780 C   0  0  0  0  0  0  0  0  0  0  0  0
  138.2890  137.7730  152.3020 O   0  0  0  0  0  0  0  0  0  0  0  0
  136.2220  136.0800  153.9810 H   0  0  0  0  0  0  0  0  0  0  0  0
  136.6520  136.2210  151.5430 C   0  0  0  0  0  3  0  0  0  0  0  0
  135.3090  136.2220  151.5280 C   0  0  0  0  0  3  0  0  0  0  0  0
  134.4900  135.4760  150.5600 C   0  0  0  0  0  0  0  0  0  0  0  0
  134.0550  134.1620  150.7970 C   0  0  0  0  0  3  0  0  0  0  0  0
  133.2540  133.4940  149.8630 C   0  0  0  0  0  3  0  0  0  0  0  0
  132.8750  134.1460  148.6960 C   0  0  0  0  0  0  0  0  0  0  0  0
  133.2770  135.4510  148.4510 C   0  0  0  0  0  3  0  0  0  0  0  0
  134.0790  136.1170  149.3830 C   0  0  0  0  0  3  0  0  0  0  0  0
  132.0930  133.5320  147.7630 O   0  0  0  0  0  0  0  0  0  0  0  0
  131.3290  133.0600  148.0300 H   0  0  0  0  0  0  0  0  0  0  0  0
  137.4860  137.4190  155.0060 C   0  0  0  0  0  2  0  0  0  0  0  0
  136.3810  137.3120  158.6680 C   0  0  0  0  0  0  0  0  0  0  0  0
  136.9660  137.7260  157.4660 C   0  0  0  0  0  3  0  0  0  0  0  0
  136.8960  136.9300  156.3080 C   0  0  0  0  0  0  0  0  0  0  0  0
  136.2150  135.7060  156.3690 C   0  0  0  0  0  3  0  0  0  0  0  0
  135.6240  135.2820  157.5610 C   0  0  0  0  0  3  0  0  0  0  0  0
  135.7110  136.0820  158.7000 C   0  0  0  0  0  0  0  0  0  0  0  0
  137.6390  138.1220  160.5230 C   0  0  0  0  0  1  0  0  0  0  0  0
  136.3980  138.0260  159.8370 O   0  0  0  0  0  0  0  0  0  0  0  0
  135.1300  135.6650  159.8690 O   0  0  0  0  0  0  0  0  0  0  0  0
  135.1920  134.7670  160.1290 H   0  0  0  0  0  0  0  0  0  0  0  0
  1  4  1  0  0  0  0
  1 15  1  0  0  0  0
  2  1  1  0  0  0  0
  3  2  2  0  0  0  0
  5  2  1  0  0  0  0
  6  5  2  0  0  0  0
  7  8  1  0  0  0  0
  7  6  1  0  0  0  0
  9  8  2  0  0  0  0
 10  9  1  0  0  0  0
 11 10  2  0  0  0  0
 11 12  1  0  0  0  0
 12  7  2  0  0  0  0
 13 14  1  0  0  0  0
 13 10  1  0  0  0  0
 15 18  1  0  0  0  0
 16 21  1  0  0  0  0
 16 23  1  0  0  0  0
 17 16  2  0  0  0  0
 18 19  2  0  0  0  0
 18 17  1  0  0  0  0
 19 20  1  0  0  0  0
 20 21  2  0  0  0  0
 21 24  1  0  0  0  0
 23 22  1  0  0  0  0
 24 25  1  0  0  0  0
M  END
>  <MODEL>
8

>  <REMARK>
 VINA RESULT:    -6.863      2.658      3.995
 INTER + INTRA:          -9.755
 INTER:                  -9.271
 INTRA:                  -0.484
 UNBOUND:                -0.484
  Name = CHEMBL4519764
  8 active torsions:
  status: ('A' for Active; 'I' for Inactive)
    1  A    between atoms: C_1  and  O_2
    2  A    between atoms: O_2  and  C_3
    3  A    between atoms: C_5  and  C_6
    4  A    between atoms: C_6  and  N_7
    5  A    between atoms: C_8  and  C_10
    6  A    between atoms: C_11  and  C_12
    7  A    between atoms: C_15  and  O_16
    8  A    between atoms: C_21  and  O_22
                            x       y       z     vdW  Elec       q    Type
                         _______ _______ _______ _____ _____    ______ ____

>  <TORSDO>
F 7

>  <SCORE>
-6.863

>  <RMSD_LB>
2.658

>  <RMSD_UB>
3.995

$$$$
CHEMBL4519764
 OpenBabel10172500123D

 25 26  0  0  0  0  0  0  0  0999 V2000
  144.9050  136.8620  151.3850 N   0  0  0  0  0  0  0  0  0  0  0  0
  143.8950  137.0010  150.4660 C   0  0  0  0  0  0  0  0  0  0  0  0
  144.0660  137.0940  149.2570 O   0  0  0  0  0  0  0  0  0  0  0  0
  144.6730  136.7700  152.3370 H   0  0  0  0  0  0  0  0  0  0  0  0
  142.5480  137.0350  151.0890 C   0  0  0  0  0  3  0  0  0  0  0  0
  142.3280  137.7900  152.1780 C   0  0  0  0  0  3  0  0  0  0  0  0
  141.0380  137.8770  152.8800 C   0  0  0  0  0  0  0  0  0  0  0  0
  140.9460  138.1160  154.2600 C   0  0  0  0  0  3  0  0  0  0  0  0
  139.7000  138.2190  154.8880 C   0  0  0  0  0  3  0  0  0  0  0  0
  138.5410  138.0980  154.1320 C   0  0  0  0  0  0  0  0  0  0  0  0
  138.6070  137.8820  152.7630 C   0  0  0  0  0  3  0  0  0  0  0  0
  139.8530  137.7770  152.1370 C   0  0  0  0  0  3  0  0  0  0  0  0
  137.3070  138.1960  154.7040 O   0  0  0  0  0  0  0  0  0  0  0  0
  136.5830  137.7260  154.3380 H   0  0  0  0  0  0  0  0  0  0  0  0
  146.2990  136.8480  150.9980 C   0  0  0  0  0  2  0  0  0  0  0  0
  147.6130  140.1990  152.2970 C   0  0  0  0  0  0  0  0  0  0  0  0
  146.8890  139.2430  151.5750 C   0  0  0  0  0  3  0  0  0  0  0  0
  147.1270  137.8670  151.7450 C   0  0  0  0  0  0  0  0  0  0  0  0
  148.1020  137.4580  152.6670 C   0  0  0  0  0  3  0  0  0  0  0  0
  148.8280  138.4010  153.3960 C   0  0  0  0  0  3  0  0  0  0  0  0
  148.5840  139.7610  153.2080 C   0  0  0  0  0  0  0  0  0  0  0  0
  146.1210  142.0570  152.3480 C   0  0  0  0  0  1  0  0  0  0  0  0
  147.4420  141.5550  152.1970 O   0  0  0  0  0  0  0  0  0  0  0  0
  149.2960  140.6860  153.9240 O   0  0  0  0  0  0  0  0  0  0  0  0
  149.7720  141.3590  153.4790 H   0  0  0  0  0  0  0  0  0  0  0  0
  1  4  1  0  0  0  0
  2  5  1  0  0  0  0
  2  1  1  0  0  0  0
  3  2  2  0  0  0  0
  5  6  2  0  0  0  0
  6  7  1  0  0  0  0
  7  8  1  0  0  0  0
  8  9  2  0  0  0  0
 10 13  1  0  0  0  0
 10  9  1  0  0  0  0
 11 10  2  0  0  0  0
 12 11  1  0  0  0  0
 12  7  2  0  0  0  0
 14 13  1  0  0  0  0
 15  1  1  0  0  0  0
 15 18  1  0  0  0  0
 16 21  1  0  0  0  0
 17 18  1  0  0  0  0
 17 16  2  0  0  0  0
 18 19  2  0  0  0  0
 19 20  1  0  0  0  0
 21 20  2  0  0  0  0
 21 24  1  0  0  0  0
 23 16  1  0  0  0  0
 23 22  1  0  0  0  0
 25 24  1  0  0  0  0
M  END
>  <MODEL>
9

>  <REMARK>
 VINA RESULT:    -6.859      6.443      9.794
 INTER + INTRA:          -9.750
 INTER:                  -9.129
 INTRA:                  -0.620
 UNBOUND:                -0.484
  Name = CHEMBL4519764
  8 active torsions:
  status: ('A' for Active; 'I' for Inactive)
    1  A    between atoms: C_1  and  O_2
    2  A    between atoms: O_2  and  C_3
    3  A    between atoms: C_5  and  C_6
    4  A    between atoms: C_6  and  N_7
    5  A    between atoms: C_8  and  C_10
    6  A    between atoms: C_11  and  C_12
    7  A    between atoms: C_15  and  O_16
    8  A    between atoms: C_21  and  O_22
                            x       y       z     vdW  Elec       q    Type
                         _______ _______ _______ _____ _____    ______ ____

>  <TORSDO>
F 7

>  <SCORE>
-6.859

>  <RMSD_LB>
6.443

>  <RMSD_UB>
9.794

$$$$
