CHEMBL1699309
 OpenBabel10162523473D

 28 30  0  0  0  0  0  0  0  0999 V2000
  138.9560  137.5510  155.1040 N   0  0  0  0  0  0  0  0  0  0  0  0
  137.6470  137.9240  155.3120 C   0  0  0  0  0  0  0  0  0  0  0  0
  137.2550  139.0880  155.2660 O   0  0  0  0  0  0  0  0  0  0  0  0
  139.1950  136.5980  155.1520 H   0  0  0  0  0  0  0  0  0  0  0  0
  139.9910  138.5190  154.8200 C   0  0  0  0  0  2  0  0  0  0  0  0
  142.4140  137.3450  151.4240 C   0  0  0  0  0  0  0  0  0  0  0  0
  143.0060  137.7500  152.6260 C   0  0  0  0  0  3  0  0  0  0  0  0
  142.2250  138.1330  153.7200 C   0  0  0  0  0  3  0  0  0  0  0  0
  140.8300  138.1190  153.6380 C   0  0  0  0  0  0  0  0  0  0  0  0
  140.2370  137.7370  152.4290 C   0  0  0  0  0  3  0  0  0  0  0  0
  141.0110  137.3350  151.3300 C   0  0  0  0  0  0  0  0  0  0  0  0
  144.3650  136.3390  150.4990 C   0  0  0  0  0  1  0  0  0  0  0  0
  143.1400  137.0380  150.3030 O   0  0  0  0  0  0  0  0  0  0  0  0
  140.2580  137.0040  150.2310 O   0  0  0  0  0  0  0  0  0  0  0  0
  138.9610  137.5820  150.1560 C   0  0  0  0  0  1  0  0  0  0  0  0
  136.7200  136.7690  155.6460 C   0  0  0  0  0  2  0  0  0  0  0  0
  136.1550  136.0810  154.4310 C   0  0  0  0  0  0  0  0  0  0  0  0
  135.1600  135.1060  154.5510 C   0  0  0  0  0  3  0  0  0  0  0  0
  134.6220  134.4940  153.4100 C   0  0  0  0  0  3  0  0  0  0  0  0
  135.0410  134.8470  152.1150 C   0  0  0  0  0  0  0  0  0  0  0  0
  136.0390  135.8330  152.0190 C   0  0  0  0  0  3  0  0  0  0  0  0
  136.5930  136.4380  153.1530 C   0  0  0  0  0  3  0  0  0  0  0  0
  134.4470  134.2360  150.8990 C   0  0  0  0  0  0  0  0  0  0  0  0
  133.0620  134.0140  150.7820 C   0  0  0  0  0  3  0  0  0  0  0  0
  132.5010  133.4860  149.6130 C   0  0  0  0  0  3  0  0  0  0  0  0
  133.3120  133.1730  148.5280 C   0  0  0  0  0  3  0  0  0  0  0  0
  134.6850  133.3680  148.6190 C   0  0  0  0  0  3  0  0  0  0  0  0
  135.2440  133.8810  149.7930 C   0  0  0  0  0  3  0  0  0  0  0  0
  1  4  1  0  0  0  0
  1  2  1  0  0  0  0
  2 16  1  0  0  0  0
  3  2  2  0  0  0  0
  5  1  1  0  0  0  0
  6  7  1  0  0  0  0
  7  8  2  0  0  0  0
  9  8  1  0  0  0  0
  9  5  1  0  0  0  0
 10  9  2  0  0  0  0
 11  6  2  0  0  0  0
 11 10  1  0  0  0  0
 13 12  1  0  0  0  0
 13  6  1  0  0  0  0
 14 11  1  0  0  0  0
 15 14  1  0  0  0  0
 17 18  1  0  0  0  0
 17 16  1  0  0  0  0
 19 18  2  0  0  0  0
 20 19  1  0  0  0  0
 21 20  2  0  0  0  0
 21 22  1  0  0  0  0
 22 17  2  0  0  0  0
 23 20  1  0  0  0  0
 24 23  1  0  0  0  0
 25 24  2  0  0  0  0
 26 27  2  0  0  0  0
 26 25  1  0  0  0  0
 27 28  1  0  0  0  0
 28 23  2  0  0  0  0
M  END
>  <MODEL>
1

>  <REMARK>
 VINA RESULT:    -8.353      0.000      0.000
 INTER + INTRA:         -12.651
 INTER:                 -11.608
 INTRA:                  -1.043
 UNBOUND:                -0.880
  Name = CHEMBL1699309
  9 active torsions:
  status: ('A' for Active; 'I' for Inactive)
    1  A    between atoms: C_1  and  O_2
    2  A    between atoms: O_2  and  C_3
    3  A    between atoms: C_6  and  C_7
    4  A    between atoms: C_7  and  N_8
    5  A    between atoms: C_9  and  C_11
    6  A    between atoms: C_11  and  C_12
    7  A    between atoms: C_15  and  C_16
    8  A    between atoms: C_25  and  O_26
    9  A    between atoms: O_26  and  C_27
                            x       y       z     vdW  Elec       q    Type
                         _______ _______ _______ _____ _____    ______ ____

>  <TORSDO>
F 7

>  <SCORE>
-8.353

>  <RMSD_LB>
0.000

>  <RMSD_UB>
0.000

$$$$
CHEMBL1699309
 OpenBabel10162523473D

 28 30  0  0  0  0  0  0  0  0999 V2000
  139.0120  137.7160  155.0400 N   0  0  0  0  0  0  0  0  0  0  0  0
  137.6730  137.9920  155.2060 C   0  0  0  0  0  0  0  0  0  0  0  0
  137.2030  139.1270  155.1760 O   0  0  0  0  0  0  0  0  0  0  0  0
  139.3140  136.7800  155.0730 H   0  0  0  0  0  0  0  0  0  0  0  0
  139.9860  138.7590  154.8210 C   0  0  0  0  0  2  0  0  0  0  0  0
  143.1260  137.5310  152.0980 C   0  0  0  0  0  0  0  0  0  0  0  0
  141.7770  137.3680  151.7620 C   0  0  0  0  0  3  0  0  0  0  0  0
  140.7630  137.7600  152.6420 C   0  0  0  0  0  3  0  0  0  0  0  0
  141.0770  138.3260  153.8810 C   0  0  0  0  0  0  0  0  0  0  0  0
  142.4250  138.4670  154.2280 C   0  0  0  0  0  3  0  0  0  0  0  0
  143.4510  138.0920  153.3460 C   0  0  0  0  0  0  0  0  0  0  0  0
  143.7890  136.4810  150.0660 C   0  0  0  0  0  1  0  0  0  0  0  0
  144.1500  137.0890  151.3010 O   0  0  0  0  0  0  0  0  0  0  0  0
  144.7060  138.2970  153.8590 O   0  0  0  0  0  0  0  0  0  0  0  0
  144.8540  139.3970  154.7490 C   0  0  0  0  0  1  0  0  0  0  0  0
  136.8170  136.7670  155.4750 C   0  0  0  0  0  2  0  0  0  0  0  0
  136.2900  136.1150  154.2240 C   0  0  0  0  0  0  0  0  0  0  0  0
  135.2560  135.1770  154.2780 C   0  0  0  0  0  3  0  0  0  0  0  0
  134.7560  134.5990  153.1030 C   0  0  0  0  0  3  0  0  0  0  0  0
  135.2540  134.9520  151.8360 C   0  0  0  0  0  0  0  0  0  0  0  0
  136.2910  135.9020  151.8050 C   0  0  0  0  0  3  0  0  0  0  0  0
  136.8070  136.4720  152.9750 C   0  0  0  0  0  3  0  0  0  0  0  0
  134.7020  134.3780  150.5830 C   0  0  0  0  0  0  0  0  0  0  0  0
  135.4700  134.2880  149.4080 C   0  0  0  0  0  3  0  0  0  0  0  0
  134.9610  133.6990  148.2430 C   0  0  0  0  0  3  0  0  0  0  0  0
  133.6720  133.1790  148.2290 C   0  0  0  0  0  3  0  0  0  0  0  0
  132.8840  133.2670  149.3700 C   0  0  0  0  0  3  0  0  0  0  0  0
  133.3890  133.8690  150.5260 C   0  0  0  0  0  3  0  0  0  0  0  0
  1  4  1  0  0  0  0
  1  2  1  0  0  0  0
  2 16  1  0  0  0  0
  3  2  2  0  0  0  0
  5  1  1  0  0  0  0
  6 11  1  0  0  0  0
  7  6  2  0  0  0  0
  7  8  1  0  0  0  0
  8  9  2  0  0  0  0
  9 10  1  0  0  0  0
  9  5  1  0  0  0  0
 11 14  1  0  0  0  0
 11 10  2  0  0  0  0
 12 13  1  0  0  0  0
 13  6  1  0  0  0  0
 14 15  1  0  0  0  0
 17 18  1  0  0  0  0
 17 16  1  0  0  0  0
 19 18  2  0  0  0  0
 20 19  1  0  0  0  0
 21 20  2  0  0  0  0
 21 22  1  0  0  0  0
 22 17  2  0  0  0  0
 23 20  1  0  0  0  0
 24 23  2  0  0  0  0
 25 24  1  0  0  0  0
 26 25  2  0  0  0  0
 26 27  1  0  0  0  0
 27 28  2  0  0  0  0
 28 23  1  0  0  0  0
M  END
>  <MODEL>
2

>  <REMARK>
 VINA RESULT:    -8.269      1.117      2.335
 INTER + INTRA:         -12.534
 INTER:                 -11.700
 INTRA:                  -0.834
 UNBOUND:                -0.880
  Name = CHEMBL1699309
  9 active torsions:
  status: ('A' for Active; 'I' for Inactive)
    1  A    between atoms: C_1  and  O_2
    2  A    between atoms: O_2  and  C_3
    3  A    between atoms: C_6  and  C_7
    4  A    between atoms: C_7  and  N_8
    5  A    between atoms: C_9  and  C_11
    6  A    between atoms: C_11  and  C_12
    7  A    between atoms: C_15  and  C_16
    8  A    between atoms: C_25  and  O_26
    9  A    between atoms: O_26  and  C_27
                            x       y       z     vdW  Elec       q    Type
                         _______ _______ _______ _____ _____    ______ ____

>  <TORSDO>
F 7

>  <SCORE>
-8.269

>  <RMSD_LB>
1.117

>  <RMSD_UB>
2.335

$$$$
CHEMBL1699309
 OpenBabel10162523473D

 28 30  0  0  0  0  0  0  0  0999 V2000
  137.9060  136.8300  155.3250 N   0  0  0  0  0  0  0  0  0  0  0  0
  137.8750  138.2040  155.2370 C   0  0  0  0  0  0  0  0  0  0  0  0
  136.8770  138.8790  155.4770 O   0  0  0  0  0  0  0  0  0  0  0  0
  138.7450  136.3560  155.1210 H   0  0  0  0  0  0  0  0  0  0  0  0
  136.7440  136.0620  155.7070 C   0  0  0  0  0  2  0  0  0  0  0  0
  134.1300  135.2750  152.3410 C   0  0  0  0  0  0  0  0  0  0  0  0
  133.7110  135.0250  153.6530 C   0  0  0  0  0  3  0  0  0  0  0  0
  134.5550  135.2740  154.7390 C   0  0  0  0  0  3  0  0  0  0  0  0
  135.8410  135.7820  154.5370 C   0  0  0  0  0  0  0  0  0  0  0  0
  136.2710  136.0090  153.2250 C   0  0  0  0  0  3  0  0  0  0  0  0
  135.4260  135.7770  152.1280 C   0  0  0  0  0  0  0  0  0  0  0  0
  133.3930  133.6200  150.7950 C   0  0  0  0  0  1  0  0  0  0  0  0
  133.3660  134.9700  151.2450 O   0  0  0  0  0  0  0  0  0  0  0  0
  136.0200  136.0500  150.9220 O   0  0  0  0  0  0  0  0  0  0  0  0
  136.8120  135.0110  150.3590 C   0  0  0  0  0  1  0  0  0  0  0  0
  139.1810  138.8230  154.7720 C   0  0  0  0  0  2  0  0  0  0  0  0
  139.6930  138.2470  153.4780 C   0  0  0  0  0  0  0  0  0  0  0  0
  138.8390  138.0390  152.3910 C   0  0  0  0  0  3  0  0  0  0  0  0
  139.3340  137.5290  151.1830 C   0  0  0  0  0  3  0  0  0  0  0  0
  140.6970  137.2290  151.0110 C   0  0  0  0  0  0  0  0  0  0  0  0
  141.5390  137.4510  152.1170 C   0  0  0  0  0  3  0  0  0  0  0  0
  141.0500  137.9450  153.3310 C   0  0  0  0  0  3  0  0  0  0  0  0
  141.2400  136.7300  149.7230 C   0  0  0  0  0  0  0  0  0  0  0  0
  142.5540  136.2400  149.6120 C   0  0  0  0  0  3  0  0  0  0  0  0
  143.0440  135.7220  148.4060 C   0  0  0  0  0  3  0  0  0  0  0  0
  142.2260  135.6750  147.2830 C   0  0  0  0  0  3  0  0  0  0  0  0
  140.9280  136.1650  147.3570 C   0  0  0  0  0  3  0  0  0  0  0  0
  140.4470  136.6960  148.5580 C   0  0  0  0  0  3  0  0  0  0  0  0
  1  5  1  0  0  0  0
  2  1  1  0  0  0  0
  2  3  2  0  0  0  0
  4  1  1  0  0  0  0
  6  7  1  0  0  0  0
  7  8  2  0  0  0  0
  9  8  1  0  0  0  0
  9  5  1  0  0  0  0
 10  9  2  0  0  0  0
 11  6  2  0  0  0  0
 11 10  1  0  0  0  0
 12 13  1  0  0  0  0
 13  6  1  0  0  0  0
 14 11  1  0  0  0  0
 15 14  1  0  0  0  0
 16  2  1  0  0  0  0
 17 16  1  0  0  0  0
 18 17  2  0  0  0  0
 19 18  1  0  0  0  0
 20 19  2  0  0  0  0
 20 21  1  0  0  0  0
 21 22  2  0  0  0  0
 22 17  1  0  0  0  0
 23 20  1  0  0  0  0
 24 23  1  0  0  0  0
 25 24  2  0  0  0  0
 26 27  2  0  0  0  0
 26 25  1  0  0  0  0
 27 28  1  0  0  0  0
 28 23  2  0  0  0  0
M  END
>  <MODEL>
3

>  <REMARK>
 VINA RESULT:    -8.234      2.218      6.739
 INTER + INTRA:         -12.485
 INTER:                 -11.283
 INTRA:                  -1.201
 UNBOUND:                -0.880
  Name = CHEMBL1699309
  9 active torsions:
  status: ('A' for Active; 'I' for Inactive)
    1  A    between atoms: C_1  and  O_2
    2  A    between atoms: O_2  and  C_3
    3  A    between atoms: C_6  and  C_7
    4  A    between atoms: C_7  and  N_8
    5  A    between atoms: C_9  and  C_11
    6  A    between atoms: C_11  and  C_12
    7  A    between atoms: C_15  and  C_16
    8  A    between atoms: C_25  and  O_26
    9  A    between atoms: O_26  and  C_27
                            x       y       z     vdW  Elec       q    Type
                         _______ _______ _______ _____ _____    ______ ____

>  <TORSDO>
F 7

>  <SCORE>
-8.234

>  <RMSD_LB>
2.218

>  <RMSD_UB>
6.739

$$$$
CHEMBL1699309
 OpenBabel10162523473D

 28 30  0  0  0  0  0  0  0  0999 V2000
  136.8940  137.3910  155.3080 N   0  0  0  0  0  0  0  0  0  0  0  0
  136.7820  136.1900  155.9720 C   0  0  0  0  0  0  0  0  0  0  0  0
  137.7020  135.6700  156.5990 O   0  0  0  0  0  0  0  0  0  0  0  0
  136.1120  137.7480  154.8290 H   0  0  0  0  0  0  0  0  0  0  0  0
  138.1270  138.1430  155.2920 C   0  0  0  0  0  2  0  0  0  0  0  0
  140.1370  137.9050  151.4600 C   0  0  0  0  0  0  0  0  0  0  0  0
  138.7780  137.5920  151.5820 C   0  0  0  0  0  3  0  0  0  0  0  0
  138.1300  137.6640  152.8180 C   0  0  0  0  0  3  0  0  0  0  0  0
  138.8280  138.0530  153.9650 C   0  0  0  0  0  0  0  0  0  0  0  0
  140.1930  138.3440  153.8490 C   0  0  0  0  0  3  0  0  0  0  0  0
  140.8490  138.2900  152.6100 C   0  0  0  0  0  0  0  0  0  0  0  0
  140.6060  136.5810  149.5370 C   0  0  0  0  0  1  0  0  0  0  0  0
  140.8290  137.7710  150.2850 O   0  0  0  0  0  0  0  0  0  0  0  0
  142.1830  138.6000  152.6920 O   0  0  0  0  0  0  0  0  0  0  0  0
  142.6780  138.9250  153.9850 C   0  0  0  0  0  1  0  0  0  0  0  0
  135.4220  135.5290  155.8290 C   0  0  0  0  0  2  0  0  0  0  0  0
  135.0890  135.1390  154.4130 C   0  0  0  0  0  0  0  0  0  0  0  0
  133.8290  135.4010  153.8690 C   0  0  0  0  0  3  0  0  0  0  0  0
  133.5400  135.0580  152.5400 C   0  0  0  0  0  3  0  0  0  0  0  0
  134.5030  134.4640  151.7050 C   0  0  0  0  0  0  0  0  0  0  0  0
  135.7670  134.2140  152.2730 C   0  0  0  0  0  3  0  0  0  0  0  0
  136.0570  134.5390  153.6030 C   0  0  0  0  0  3  0  0  0  0  0  0
  134.2230  134.1370  150.2850 C   0  0  0  0  0  0  0  0  0  0  0  0
  132.9490  133.7170  149.8580 C   0  0  0  0  0  3  0  0  0  0  0  0
  132.6760  133.4600  148.5090 C   0  0  0  0  0  3  0  0  0  0  0  0
  133.6700  133.6230  147.5510 C   0  0  0  0  0  3  0  0  0  0  0  0
  134.9430  134.0220  147.9440 C   0  0  0  0  0  3  0  0  0  0  0  0
  135.2160  134.2630  149.2930 C   0  0  0  0  0  3  0  0  0  0  0  0
  1  2  1  0  0  0  0
  2  3  2  0  0  0  0
  4  1  1  0  0  0  0
  5  1  1  0  0  0  0
  6  7  2  0  0  0  0
  6 11  1  0  0  0  0
  7  8  1  0  0  0  0
  8  9  2  0  0  0  0
  9  5  1  0  0  0  0
 10  9  1  0  0  0  0
 11 14  1  0  0  0  0
 11 10  2  0  0  0  0
 12 13  1  0  0  0  0
 13  6  1  0  0  0  0
 14 15  1  0  0  0  0
 16  2  1  0  0  0  0
 17 16  1  0  0  0  0
 18 17  1  0  0  0  0
 19 18  2  0  0  0  0
 20 21  2  0  0  0  0
 20 19  1  0  0  0  0
 21 22  1  0  0  0  0
 22 17  2  0  0  0  0
 23 20  1  0  0  0  0
 24 23  1  0  0  0  0
 25 24  2  0  0  0  0
 26 27  2  0  0  0  0
 26 25  1  0  0  0  0
 27 28  1  0  0  0  0
 28 23  2  0  0  0  0
M  END
>  <MODEL>
4

>  <REMARK>
 VINA RESULT:    -8.204      1.605      2.461
 INTER + INTRA:         -12.442
 INTER:                 -11.033
 INTRA:                  -1.409
 UNBOUND:                -0.880
  Name = CHEMBL1699309
  9 active torsions:
  status: ('A' for Active; 'I' for Inactive)
    1  A    between atoms: C_1  and  O_2
    2  A    between atoms: O_2  and  C_3
    3  A    between atoms: C_6  and  C_7
    4  A    between atoms: C_7  and  N_8
    5  A    between atoms: C_9  and  C_11
    6  A    between atoms: C_11  and  C_12
    7  A    between atoms: C_15  and  C_16
    8  A    between atoms: C_25  and  O_26
    9  A    between atoms: O_26  and  C_27
                            x       y       z     vdW  Elec       q    Type
                         _______ _______ _______ _____ _____    ______ ____

>  <TORSDO>
F 7

>  <SCORE>
-8.204

>  <RMSD_LB>
1.605

>  <RMSD_UB>
2.461

$$$$
CHEMBL1699309
 OpenBabel10162523473D

 28 30  0  0  0  0  0  0  0  0999 V2000
  137.0430  137.4400  155.3890 N   0  0  0  0  0  0  0  0  0  0  0  0
  136.8610  136.2010  155.9610 C   0  0  0  0  0  0  0  0  0  0  0  0
  137.7580  135.5670  156.5110 O   0  0  0  0  0  0  0  0  0  0  0  0
  136.2750  137.8910  154.9700 H   0  0  0  0  0  0  0  0  0  0  0  0
  138.3290  138.0980  155.3840 C   0  0  0  0  0  2  0  0  0  0  0  0
  140.2590  137.8660  151.5100 C   0  0  0  0  0  0  0  0  0  0  0  0
  141.0110  137.9940  152.6840 C   0  0  0  0  0  3  0  0  0  0  0  0
  140.3890  138.0730  153.9330 C   0  0  0  0  0  3  0  0  0  0  0  0
  138.9960  138.0260  154.0380 C   0  0  0  0  0  0  0  0  0  0  0  0
  138.2410  137.9230  152.8640 C   0  0  0  0  0  3  0  0  0  0  0  0
  138.8570  137.8260  151.6060 C   0  0  0  0  0  0  0  0  0  0  0  0
  140.9660  136.6030  149.6190 C   0  0  0  0  0  1  0  0  0  0  0  0
  140.8230  137.8650  150.2610 O   0  0  0  0  0  0  0  0  0  0  0  0
  137.9590  137.7390  150.5720 O   0  0  0  0  0  0  0  0  0  0  0  0
  136.9740  136.7180  150.6730 C   0  0  0  0  0  1  0  0  0  0  0  0
  135.4510  135.6560  155.8210 C   0  0  0  0  0  2  0  0  0  0  0  0
  135.0890  135.2820  154.4080 C   0  0  0  0  0  0  0  0  0  0  0  0
  135.8320  134.3350  153.6980 C   0  0  0  0  0  3  0  0  0  0  0  0
  135.4680  133.9750  152.3930 C   0  0  0  0  0  3  0  0  0  0  0  0
  134.3400  134.5290  151.7610 C   0  0  0  0  0  0  0  0  0  0  0  0
  133.6030  135.4760  152.4970 C   0  0  0  0  0  3  0  0  0  0  0  0
  133.9700  135.8520  153.7940 C   0  0  0  0  0  3  0  0  0  0  0  0
  133.9190  134.1220  150.3970 C   0  0  0  0  0  0  0  0  0  0  0  0
  133.1940  134.9870  149.5570 C   0  0  0  0  0  3  0  0  0  0  0  0
  132.8440  134.6180  148.2520 C   0  0  0  0  0  3  0  0  0  0  0  0
  133.2200  133.3760  147.7520 C   0  0  0  0  0  3  0  0  0  0  0  0
  133.9250  132.4940  148.5640 C   0  0  0  0  0  3  0  0  0  0  0  0
  134.2580  132.8600  149.8720 C   0  0  0  0  0  3  0  0  0  0  0  0
  1  2  1  0  0  0  0
  2  3  2  0  0  0  0
  4  1  1  0  0  0  0
  5  1  1  0  0  0  0
  6 11  2  0  0  0  0
  6  7  1  0  0  0  0
  7  8  2  0  0  0  0
  8  9  1  0  0  0  0
  9  5  1  0  0  0  0
 10  9  2  0  0  0  0
 11 10  1  0  0  0  0
 12 13  1  0  0  0  0
 13  6  1  0  0  0  0
 14 15  1  0  0  0  0
 14 11  1  0  0  0  0
 16  2  1  0  0  0  0
 17 16  1  0  0  0  0
 18 17  2  0  0  0  0
 19 18  1  0  0  0  0
 20 19  2  0  0  0  0
 20 21  1  0  0  0  0
 21 22  2  0  0  0  0
 22 17  1  0  0  0  0
 23 20  1  0  0  0  0
 24 23  2  0  0  0  0
 25 24  1  0  0  0  0
 26 25  2  0  0  0  0
 26 27  1  0  0  0  0
 27 28  2  0  0  0  0
 28 23  1  0  0  0  0
M  END
>  <MODEL>
5

>  <REMARK>
 VINA RESULT:    -8.179      1.667      2.046
 INTER + INTRA:         -12.407
 INTER:                 -10.990
 INTRA:                  -1.416
 UNBOUND:                -0.880
  Name = CHEMBL1699309
  9 active torsions:
  status: ('A' for Active; 'I' for Inactive)
    1  A    between atoms: C_1  and  O_2
    2  A    between atoms: O_2  and  C_3
    3  A    between atoms: C_6  and  C_7
    4  A    between atoms: C_7  and  N_8
    5  A    between atoms: C_9  and  C_11
    6  A    between atoms: C_11  and  C_12
    7  A    between atoms: C_15  and  C_16
    8  A    between atoms: C_25  and  O_26
    9  A    between atoms: O_26  and  C_27
                            x       y       z     vdW  Elec       q    Type
                         _______ _______ _______ _____ _____    ______ ____

>  <TORSDO>
F 7

>  <SCORE>
-8.179

>  <RMSD_LB>
1.667

>  <RMSD_UB>
2.046

$$$$
CHEMBL1699309
 OpenBabel10162523473D

 28 30  0  0  0  0  0  0  0  0999 V2000
  140.8310  137.7340  154.6050 N   0  0  0  0  0  0  0  0  0  0  0  0
  139.6930  138.4620  154.8660 C   0  0  0  0  0  0  0  0  0  0  0  0
  139.5600  139.6480  154.5710 O   0  0  0  0  0  0  0  0  0  0  0  0
  140.8630  136.7850  154.8660 H   0  0  0  0  0  0  0  0  0  0  0  0
  141.9820  138.3200  153.9580 C   0  0  0  0  0  2  0  0  0  0  0  0
  142.7000  136.5900  150.0490 C   0  0  0  0  0  0  0  0  0  0  0  0
  143.7530  136.8130  150.9430 C   0  0  0  0  0  3  0  0  0  0  0  0
  143.5230  137.3750  152.2020 C   0  0  0  0  0  3  0  0  0  0  0  0
  142.2300  137.7270  152.5980 C   0  0  0  0  0  0  0  0  0  0  0  0
  141.1790  137.5290  151.6960 C   0  0  0  0  0  3  0  0  0  0  0  0
  141.3960  136.9500  150.4360 C   0  0  0  0  0  0  0  0  0  0  0  0
  143.3150  134.7650  148.6490 C   0  0  0  0  0  1  0  0  0  0  0  0
  142.8900  136.1170  148.7770 O   0  0  0  0  0  0  0  0  0  0  0  0
  140.2510  136.8400  149.6880 O   0  0  0  0  0  0  0  0  0  0  0  0
  139.2380  137.8070  149.9360 C   0  0  0  0  0  1  0  0  0  0  0  0
  138.6130  137.6830  155.5960 C   0  0  0  0  0  2  0  0  0  0  0  0
  137.5800  137.0830  154.6790 C   0  0  0  0  0  0  0  0  0  0  0  0
  137.6600  137.2490  153.2940 C   0  0  0  0  0  3  0  0  0  0  0  0
  136.7070  136.6620  152.4490 C   0  0  0  0  0  3  0  0  0  0  0  0
  135.6570  135.8740  152.9550 C   0  0  0  0  0  0  0  0  0  0  0  0
  135.5990  135.7180  154.3520 C   0  0  0  0  0  3  0  0  0  0  0  0
  136.5370  136.3140  155.2020 C   0  0  0  0  0  3  0  0  0  0  0  0
  134.6690  135.2120  152.0670 C   0  0  0  0  0  0  0  0  0  0  0  0
  133.5540  135.9020  151.5550 C   0  0  0  0  0  3  0  0  0  0  0  0
  132.6530  135.2880  150.6760 C   0  0  0  0  0  3  0  0  0  0  0  0
  132.8500  133.9690  150.2820 C   0  0  0  0  0  3  0  0  0  0  0  0
  133.9330  133.2570  150.7840 C   0  0  0  0  0  3  0  0  0  0  0  0
  134.8220  133.8680  151.6730 C   0  0  0  0  0  3  0  0  0  0  0  0
  1  4  1  0  0  0  0
  1  2  1  0  0  0  0
  2 16  1  0  0  0  0
  3  2  2  0  0  0  0
  5  1  1  0  0  0  0
  6 11  2  0  0  0  0
  6  7  1  0  0  0  0
  7  8  2  0  0  0  0
  8  9  1  0  0  0  0
  9  5  1  0  0  0  0
 10  9  2  0  0  0  0
 11 10  1  0  0  0  0
 12 13  1  0  0  0  0
 13  6  1  0  0  0  0
 14 15  1  0  0  0  0
 14 11  1  0  0  0  0
 17 22  1  0  0  0  0
 17 16  1  0  0  0  0
 18 17  2  0  0  0  0
 19 20  2  0  0  0  0
 19 18  1  0  0  0  0
 20 21  1  0  0  0  0
 21 22  2  0  0  0  0
 23 20  1  0  0  0  0
 24 23  2  0  0  0  0
 25 24  1  0  0  0  0
 26 25  2  0  0  0  0
 26 27  1  0  0  0  0
 27 28  2  0  0  0  0
 28 23  1  0  0  0  0
M  END
>  <MODEL>
6

>  <REMARK>
 VINA RESULT:    -8.113      1.237      2.047
 INTER + INTRA:         -12.314
 INTER:                 -11.185
 INTRA:                  -1.129
 UNBOUND:                -0.880
  Name = CHEMBL1699309
  9 active torsions:
  status: ('A' for Active; 'I' for Inactive)
    1  A    between atoms: C_1  and  O_2
    2  A    between atoms: O_2  and  C_3
    3  A    between atoms: C_6  and  C_7
    4  A    between atoms: C_7  and  N_8
    5  A    between atoms: C_9  and  C_11
    6  A    between atoms: C_11  and  C_12
    7  A    between atoms: C_15  and  C_16
    8  A    between atoms: C_25  and  O_26
    9  A    between atoms: O_26  and  C_27
                            x       y       z     vdW  Elec       q    Type
                         _______ _______ _______ _____ _____    ______ ____

>  <TORSDO>
F 7

>  <SCORE>
-8.113

>  <RMSD_LB>
1.237

>  <RMSD_UB>
2.047

$$$$
CHEMBL1699309
 OpenBabel10162523473D

 28 30  0  0  0  0  0  0  0  0999 V2000
  139.4710  138.0590  153.8840 N   0  0  0  0  0  0  0  0  0  0  0  0
  140.7610  138.5150  154.0450 C   0  0  0  0  0  0  0  0  0  0  0  0
  141.0660  139.4470  154.7850 O   0  0  0  0  0  0  0  0  0  0  0  0
  139.3040  137.3030  153.2760 H   0  0  0  0  0  0  0  0  0  0  0  0
  138.3570  138.6570  154.5810 C   0  0  0  0  0  2  0  0  0  0  0  0
  136.3800  135.8660  157.2430 C   0  0  0  0  0  0  0  0  0  0  0  0
  137.3590  136.7460  157.7190 C   0  0  0  0  0  3  0  0  0  0  0  0
  138.0000  137.6430  156.8600 C   0  0  0  0  0  3  0  0  0  0  0  0
  137.6750  137.6820  155.5020 C   0  0  0  0  0  0  0  0  0  0  0  0
  136.7140  136.7870  155.0190 C   0  0  0  0  0  3  0  0  0  0  0  0
  136.0530  135.8930  155.8760 C   0  0  0  0  0  0  0  0  0  0  0  0
  136.3190  134.7380  159.3390 C   0  0  0  0  0  1  0  0  0  0  0  0
  135.7850  134.9170  158.0320 O   0  0  0  0  0  0  0  0  0  0  0  0
  135.1510  135.0890  155.2250 O   0  0  0  0  0  0  0  0  0  0  0  0
  134.2410  135.7420  154.3470 C   0  0  0  0  0  1  0  0  0  0  0  0
  141.7840  137.7900  153.1900 C   0  0  0  0  0  2  0  0  0  0  0  0
  143.1080  138.5040  153.1010 C   0  0  0  0  0  0  0  0  0  0  0  0
  143.3300  139.4990  152.1460 C   0  0  0  0  0  3  0  0  0  0  0  0
  144.5560  140.1750  152.0920 C   0  0  0  0  0  3  0  0  0  0  0  0
  145.5930  139.8980  153.0000 C   0  0  0  0  0  0  0  0  0  0  0  0
  145.3460  138.8950  153.9570 C   0  0  0  0  0  3  0  0  0  0  0  0
  144.1300  138.2050  154.0060 C   0  0  0  0  0  3  0  0  0  0  0  0
  146.8800  140.6380  152.9810 C   0  0  0  0  0  0  0  0  0  0  0  0
  147.4890  141.0330  151.7750 C   0  0  0  0  0  3  0  0  0  0  0  0
  148.6760  141.7760  151.7630 C   0  0  0  0  0  3  0  0  0  0  0  0
  149.2790  142.1490  152.9590 C   0  0  0  0  0  3  0  0  0  0  0  0
  148.7090  141.7600  154.1660 C   0  0  0  0  0  3  0  0  0  0  0  0
  147.5330  141.0050  154.1740 C   0  0  0  0  0  3  0  0  0  0  0  0
  1  2  1  0  0  0  0
  1  5  1  0  0  0  0
  2  3  2  0  0  0  0
  4  1  1  0  0  0  0
  5  9  1  0  0  0  0
  6  7  1  0  0  0  0
  6 13  1  0  0  0  0
  8  7  2  0  0  0  0
  9  8  1  0  0  0  0
 10  9  2  0  0  0  0
 10 11  1  0  0  0  0
 11  6  2  0  0  0  0
 13 12  1  0  0  0  0
 14 11  1  0  0  0  0
 15 14  1  0  0  0  0
 16  2  1  0  0  0  0
 17 16  1  0  0  0  0
 17 22  1  0  0  0  0
 18 17  2  0  0  0  0
 19 18  1  0  0  0  0
 19 20  2  0  0  0  0
 20 21  1  0  0  0  0
 21 22  2  0  0  0  0
 23 20  1  0  0  0  0
 23 28  1  0  0  0  0
 24 23  2  0  0  0  0
 25 24  1  0  0  0  0
 25 26  2  0  0  0  0
 26 27  1  0  0  0  0
 27 28  2  0  0  0  0
M  END
>  <MODEL>
7

>  <REMARK>
 VINA RESULT:    -8.021      3.763     10.385
 INTER + INTRA:         -12.184
 INTER:                 -11.404
 INTRA:                  -0.780
 UNBOUND:                -0.880
  Name = CHEMBL1699309
  9 active torsions:
  status: ('A' for Active; 'I' for Inactive)
    1  A    between atoms: C_1  and  O_2
    2  A    between atoms: O_2  and  C_3
    3  A    between atoms: C_6  and  C_7
    4  A    between atoms: C_7  and  N_8
    5  A    between atoms: C_9  and  C_11
    6  A    between atoms: C_11  and  C_12
    7  A    between atoms: C_15  and  C_16
    8  A    between atoms: C_25  and  O_26
    9  A    between atoms: O_26  and  C_27
                            x       y       z     vdW  Elec       q    Type
                         _______ _______ _______ _____ _____    ______ ____

>  <TORSDO>
F 7

>  <SCORE>
-8.021

>  <RMSD_LB>
3.763

>  <RMSD_UB>
10.385

$$$$
CHEMBL1699309
 OpenBabel10162523473D

 28 30  0  0  0  0  0  0  0  0999 V2000
  133.8870  135.8040  150.1000 N   0  0  0  0  0  0  0  0  0  0  0  0
  133.4970  134.7700  150.9210 C   0  0  0  0  0  0  0  0  0  0  0  0
  132.3240  134.4800  151.1410 O   0  0  0  0  0  0  0  0  0  0  0  0
  134.8470  135.9750  149.9670 H   0  0  0  0  0  0  0  0  0  0  0  0
  132.9270  136.6490  149.4270 C   0  0  0  0  0  2  0  0  0  0  0  0
  134.1460  137.6360  145.3870 C   0  0  0  0  0  0  0  0  0  0  0  0
  132.8130  137.3270  145.6820 C   0  0  0  0  0  3  0  0  0  0  0  0
  132.4200  137.0040  146.9840 C   0  0  0  0  0  3  0  0  0  0  0  0
  133.3540  136.9830  148.0240 C   0  0  0  0  0  0  0  0  0  0  0  0
  134.6910  137.2680  147.7260 C   0  0  0  0  0  3  0  0  0  0  0  0
  135.0930  137.6100  146.4250 C   0  0  0  0  0  0  0  0  0  0  0  0
  134.9890  136.7510  143.3430 C   0  0  0  0  0  1  0  0  0  0  0  0
  134.5880  137.8790  144.1130 O   0  0  0  0  0  0  0  0  0  0  0  0
  136.4400  137.8490  146.3220 O   0  0  0  0  0  0  0  0  0  0  0  0
  136.8440  139.2130  146.3360 C   0  0  0  0  0  1  0  0  0  0  0  0
  134.6520  134.0320  151.5750 C   0  0  0  0  0  2  0  0  0  0  0  0
  135.0380  134.5900  152.9200 C   0  0  0  0  0  0  0  0  0  0  0  0
  134.3810  134.1860  154.0860 C   0  0  0  0  0  3  0  0  0  0  0  0
  134.7690  134.6910  155.3340 C   0  0  0  0  0  3  0  0  0  0  0  0
  135.8360  135.5980  155.4650 C   0  0  0  0  0  0  0  0  0  0  0  0
  136.4860  135.9870  154.2780 C   0  0  0  0  0  3  0  0  0  0  0  0
  136.0940  135.4990  153.0270 C   0  0  0  0  0  3  0  0  0  0  0  0
  136.2840  136.1060  156.7860 C   0  0  0  0  0  0  0  0  0  0  0  0
  136.9770  137.3230  156.9150 C   0  0  0  0  0  3  0  0  0  0  0  0
  137.3520  137.8240  158.1690 C   0  0  0  0  0  3  0  0  0  0  0  0
  137.0340  137.1200  159.3250 C   0  0  0  0  0  3  0  0  0  0  0  0
  136.3630  135.9070  159.2290 C   0  0  0  0  0  3  0  0  0  0  0  0
  136.0050  135.4030  157.9740 C   0  0  0  0  0  3  0  0  0  0  0  0
  1  2  1  0  0  0  0
  2  3  2  0  0  0  0
  2 16  1  0  0  0  0
  4  1  1  0  0  0  0
  5  1  1  0  0  0  0
  6  7  2  0  0  0  0
  6 11  1  0  0  0  0
  7  8  1  0  0  0  0
  8  9  2  0  0  0  0
  9  5  1  0  0  0  0
 10  9  1  0  0  0  0
 11 10  2  0  0  0  0
 12 13  1  0  0  0  0
 13  6  1  0  0  0  0
 14 15  1  0  0  0  0
 14 11  1  0  0  0  0
 16 17  1  0  0  0  0
 17 22  2  0  0  0  0
 17 18  1  0  0  0  0
 18 19  2  0  0  0  0
 19 20  1  0  0  0  0
 20 23  1  0  0  0  0
 21 20  2  0  0  0  0
 22 21  1  0  0  0  0
 23 24  2  0  0  0  0
 23 28  1  0  0  0  0
 24 25  1  0  0  0  0
 25 26  2  0  0  0  0
 27 26  1  0  0  0  0
 28 27  2  0  0  0  0
M  END
>  <MODEL>
8

>  <REMARK>
 VINA RESULT:    -8.016      4.561      8.090
 INTER + INTRA:         -12.177
 INTER:                 -11.337
 INTRA:                  -0.841
 UNBOUND:                -0.880
  Name = CHEMBL1699309
  9 active torsions:
  status: ('A' for Active; 'I' for Inactive)
    1  A    between atoms: C_1  and  O_2
    2  A    between atoms: O_2  and  C_3
    3  A    between atoms: C_6  and  C_7
    4  A    between atoms: C_7  and  N_8
    5  A    between atoms: C_9  and  C_11
    6  A    between atoms: C_11  and  C_12
    7  A    between atoms: C_15  and  C_16
    8  A    between atoms: C_25  and  O_26
    9  A    between atoms: O_26  and  C_27
                            x       y       z     vdW  Elec       q    Type
                         _______ _______ _______ _____ _____    ______ ____

>  <TORSDO>
F 7

>  <SCORE>
-8.016

>  <RMSD_LB>
4.561

>  <RMSD_UB>
8.090

$$$$
CHEMBL1699309
 OpenBabel10162523473D

 28 30  0  0  0  0  0  0  0  0999 V2000
  141.8160  139.3150  151.1190 N   0  0  0  0  0  0  0  0  0  0  0  0
  140.8870  138.3530  151.4460 C   0  0  0  0  0  0  0  0  0  0  0  0
  141.1520  137.1570  151.5480 O   0  0  0  0  0  0  0  0  0  0  0  0
  141.5310  140.2550  151.0600 H   0  0  0  0  0  0  0  0  0  0  0  0
  143.1980  138.9860  150.8600 C   0  0  0  0  0  2  0  0  0  0  0  0
  145.9300  141.2500  153.3500 C   0  0  0  0  0  0  0  0  0  0  0  0
  145.2440  140.1400  153.8570 C   0  0  0  0  0  3  0  0  0  0  0  0
  144.3590  139.4120  153.0560 C   0  0  0  0  0  3  0  0  0  0  0  0
  144.1410  139.7780  151.7250 C   0  0  0  0  0  0  0  0  0  0  0  0
  144.8070  140.9010  151.2230 C   0  0  0  0  0  3  0  0  0  0  0  0
  145.7100  141.6290  152.0140 C   0  0  0  0  0  0  0  0  0  0  0  0
  148.1130  141.6580  154.2110 C   0  0  0  0  0  1  0  0  0  0  0  0
  146.7440  142.0380  154.1210 O   0  0  0  0  0  0  0  0  0  0  0  0
  146.2610  142.7000  151.3570 O   0  0  0  0  0  0  0  0  0  0  0  0
  146.4660  142.5460  149.9580 C   0  0  0  0  0  1  0  0  0  0  0  0
  139.4790  138.8900  151.6310 C   0  0  0  0  0  2  0  0  0  0  0  0
  138.7080  138.1940  152.7220 C   0  0  0  0  0  0  0  0  0  0  0  0
  137.7090  137.2650  152.4200 C   0  0  0  0  0  3  0  0  0  0  0  0
  137.0180  136.6030  153.4450 C   0  0  0  0  0  3  0  0  0  0  0  0
  137.3140  136.8290  154.8010 C   0  0  0  0  0  0  0  0  0  0  0  0
  138.3270  137.7660  155.0810 C   0  0  0  0  0  3  0  0  0  0  0  0
  139.0100  138.4420  154.0640 C   0  0  0  0  0  3  0  0  0  0  0  0
  136.6200  136.1020  155.8930 C   0  0  0  0  0  0  0  0  0  0  0  0
  137.1210  136.0840  157.2070 C   0  0  0  0  0  3  0  0  0  0  0  0
  136.4350  135.4400  158.2450 C   0  0  0  0  0  3  0  0  0  0  0  0
  135.2250  134.8040  157.9930 C   0  0  0  0  0  3  0  0  0  0  0  0
  134.7110  134.7920  156.7010 C   0  0  0  0  0  3  0  0  0  0  0  0
  135.4070  135.4220  155.6650 C   0  0  0  0  0  3  0  0  0  0  0  0
  1  2  1  0  0  0  0
  2  3  2  0  0  0  0
  2 16  1  0  0  0  0
  4  1  1  0  0  0  0
  5  1  1  0  0  0  0
  5  9  1  0  0  0  0
  6  7  1  0  0  0  0
  6 13  1  0  0  0  0
  8  7  2  0  0  0  0
  9  8  1  0  0  0  0
 10  9  2  0  0  0  0
 10 11  1  0  0  0  0
 11  6  2  0  0  0  0
 13 12  1  0  0  0  0
 14 11  1  0  0  0  0
 15 14  1  0  0  0  0
 16 17  1  0  0  0  0
 17 22  1  0  0  0  0
 18 17  2  0  0  0  0
 18 19  1  0  0  0  0
 19 20  2  0  0  0  0
 20 21  1  0  0  0  0
 20 23  1  0  0  0  0
 22 21  2  0  0  0  0
 23 24  1  0  0  0  0
 24 25  2  0  0  0  0
 26 25  1  0  0  0  0
 27 26  2  0  0  0  0
 28 23  2  0  0  0  0
 28 27  1  0  0  0  0
M  END
>  <MODEL>
9

>  <REMARK>
 VINA RESULT:    -7.879      3.546      6.130
 INTER + INTRA:         -11.983
 INTER:                 -11.103
 INTRA:                  -0.880
 UNBOUND:                -0.880
  Name = CHEMBL1699309
  9 active torsions:
  status: ('A' for Active; 'I' for Inactive)
    1  A    between atoms: C_1  and  O_2
    2  A    between atoms: O_2  and  C_3
    3  A    between atoms: C_6  and  C_7
    4  A    between atoms: C_7  and  N_8
    5  A    between atoms: C_9  and  C_11
    6  A    between atoms: C_11  and  C_12
    7  A    between atoms: C_15  and  C_16
    8  A    between atoms: C_25  and  O_26
    9  A    between atoms: O_26  and  C_27
                            x       y       z     vdW  Elec       q    Type
                         _______ _______ _______ _____ _____    ______ ____

>  <TORSDO>
F 7

>  <SCORE>
-7.879

>  <RMSD_LB>
3.546

>  <RMSD_UB>
6.130

$$$$
