CHEMBL366374
 OpenBabel10172500583D

 33 33  0  0  1  0  0  0  0  0999 V2000
  136.2750  136.3440  155.4970 C   0  0  0  0  0  0  0  0  0  0  0  0
  136.9280  136.6980  154.3180 C   0  0  0  0  0  3  0  0  0  0  0  0
  138.0770  137.4800  154.3530 C   0  0  0  0  0  3  0  0  0  0  0  0
  138.6020  137.9310  155.5800 C   0  0  0  0  0  0  0  0  0  0  0  0
  137.9490  137.5790  156.7750 C   0  0  0  0  0  0  0  0  0  0  0  0
  136.8180  136.7600  156.7250 C   0  0  0  0  0  3  0  0  0  0  0  0
  138.3170  137.9220  158.0520 O   0  0  0  0  0  0  0  0  0  0  0  0
  137.3320  137.8080  159.0740 C   0  0  0  0  0  1  0  0  0  0  0  0
  135.0180  135.5270  155.4490 C   0  0  0  0  0  2  0  0  0  0  0  0
  134.1240  134.3810  153.4900 C   0  0  0  0  0  0  0  0  0  0  0  0
  134.3000  133.2790  153.9780 O   0  0  0  0  0  0  0  0  0  0  0  0
  134.4260  135.5560  154.1430 N   0  0  0  0  0  0  0  0  0  0  0  0
  134.2350  136.4200  153.7110 H   0  0  0  0  0  0  0  0  0  0  0  0
  133.5350  134.5840  152.1060 C   0  0  0  0  0  2  0  0  0  0  0  0
  133.6950  136.0370  151.6650 C   0  0  0  0  0  2  0  0  0  0  0  0
  132.8360  136.3820  150.4530 C   0  0  0  0  0  2  0  0  0  0  0  0
  133.6310  136.1640  149.1630 C   0  0  0  0  0  2  0  0  0  0  0  0
  132.8020  135.4410  148.1050 C   0  0  0  0  0  2  0  0  0  0  0  0
  132.8550  133.9260  148.3100 C   0  0  0  0  0  2  0  0  0  0  0  0
  134.3420  131.9440  148.7460 C   0  0  0  0  0  1  0  0  0  0  0  0
  134.2820  133.4530  148.5780 C   0  0  0  0  0  2  0  0  0  0  0  0
  139.7240  138.6820  155.6750 O   0  0  0  0  0  0  0  0  0  0  0  0
  140.9710  138.0970  155.2950 C   0  0  0  0  0  2  0  0  0  0  0  0
  141.4300  138.8110  154.0200 C   0  0  1  0  0  3  0  0  0  0  0  0
  142.5790  139.6210  154.2830 O   0  0  0  0  0  0  0  0  0  0  0  0
  143.3810  139.1320  154.0440 H   0  0  0  0  0  0  0  0  0  0  0  0
  141.7610  137.7980  152.9240 C   0  0  0  0  0  2  0  0  0  0  0  0
  140.7500  137.8650  151.7830 C   0  0  0  0  0  2  0  0  0  0  0  0
  139.9230  139.1450  151.8490 C   0  0  0  0  0  2  0  0  0  0  0  0
  139.5140  139.6220  150.5190 N   0  0  0  0  0  4  0  0  0  0  0  0
  140.6590  139.9000  149.6510 C   0  0  0  0  0  1  0  0  0  0  0  0
  138.6510  138.6190  149.8890 C   0  0  0  0  0  1  0  0  0  0  0  0
  139.0070  140.4980  150.6470 H   0  0  0  0  0  0  0  0  0  0  0  0
  1  6  1  0  0  0  0
  2  3  1  0  0  0  0
  2  1  2  0  0  0  0
  3  4  2  0  0  0  0
  4 22  1  0  0  0  0
  4  5  1  0  0  0  0
  5  7  1  0  0  0  0
  6  5  2  0  0  0  0
  7  8  1  0  0  0  0
  9  1  1  0  0  0  0
 10 11  2  0  0  0  0
 10 12  1  0  0  0  0
 12  9  1  0  0  0  0
 13 12  1  0  0  0  0
 14 10  1  0  0  0  0
 15 14  1  0  0  0  0
 16 15  1  0  0  0  0
 17 16  1  0  0  0  0
 18 19  1  0  0  0  0
 18 17  1  0  0  0  0
 19 21  1  0  0  0  0
 21 20  1  0  0  0  0
 23 22  1  0  0  0  0
 24 27  1  6  0  0  0
 24 25  1  0  0  0  0
 24 23  1  0  0  0  0
 26 25  1  0  0  0  0
 28 29  1  0  0  0  0
 28 27  1  0  0  0  0
 30 33  1  0  0  0  0
 30 29  1  0  0  0  0
 31 30  1  0  0  0  0
 32 30  1  0  0  0  0
M  END
>  <MODEL>
1

>  <REMARK>
 VINA RESULT:    -6.738      0.000      0.000
 INTER + INTRA:         -15.113
 INTER:                 -13.210
 INTRA:                  -1.903
 UNBOUND:                -1.480
  Name = CHEMBL366374
  22 active torsions:
  status: ('A' for Active; 'I' for Inactive)
    1  A    between atoms: C_1  and  C_2
    2  A    between atoms: C_2  and  C_3
    3  A    between atoms: C_3  and  C_4
    4  A    between atoms: C_4  and  C_5
    5  A    between atoms: C_5  and  C_6
    6  A    between atoms: C_6  and  C_7
    7  A    between atoms: C_7  and  C_8
    8  A    between atoms: C_8  and  C_9
    9  A    between atoms: N_11  and  C_12
   10  A    between atoms: C_12  and  C_13
   11  A    between atoms: C_16  and  O_17
   12  A    between atoms: O_17  and  C_18
   13  A    between atoms: C_18  and  C_19
   14  A    between atoms: C_19  and  O_20
   15  A    between atoms: C_19  and  C_21
   16  A    between atoms: C_21  and  C_22
   17  A    between atoms: C_22  and  C_23
   18  A    between atoms: C_23  and  N_24
   19  A    between atoms: N_24  and  C_25
   20  A    between atoms: N_24  and  C_26
   21  A    between atoms: C_27  and  O_28
   22  A    between atoms: O_28  and  C_29
                            x       y       z     vdW  Elec       q    Type
                         _______ _______ _______ _____ _____    ______ ____

>  <TORSDO>
F 18

>  <SCORE>
-6.738

>  <RMSD_LB>
0.000

>  <RMSD_UB>
0.000

$$$$
CHEMBL366374
 OpenBabel10172500583D

 33 33  0  0  1  0  0  0  0  0999 V2000
  142.0790  137.6640  152.2850 C   0  0  0  0  0  0  0  0  0  0  0  0
  142.6080  137.9610  153.5400 C   0  0  0  0  0  3  0  0  0  0  0  0
  141.7760  138.3410  154.5870 C   0  0  0  0  0  3  0  0  0  0  0  0
  140.3820  138.4330  154.4000 C   0  0  0  0  0  0  0  0  0  0  0  0
  139.8400  138.1350  153.1370 C   0  0  0  0  0  0  0  0  0  0  0  0
  140.6870  137.7180  152.1060 C   0  0  0  0  0  3  0  0  0  0  0  0
  138.5160  138.1670  152.7760 O   0  0  0  0  0  0  0  0  0  0  0  0
  138.1710  137.6530  151.4920 C   0  0  0  0  0  1  0  0  0  0  0  0
  142.9870  137.2870  151.1530 C   0  0  0  0  0  2  0  0  0  0  0  0
  144.8300  138.5220  150.1380 C   0  0  0  0  0  0  0  0  0  0  0  0
  144.3030  138.5250  149.0390 O   0  0  0  0  0  0  0  0  0  0  0  0
  144.2520  137.9540  151.2530 N   0  0  0  0  0  0  0  0  0  0  0  0
  144.7100  138.0070  152.1230 H   0  0  0  0  0  0  0  0  0  0  0  0
  146.1810  139.1590  150.4050 C   0  0  0  0  0  2  0  0  0  0  0  0
  146.2240  140.5770  149.8440 C   0  0  0  0  0  2  0  0  0  0  0  0
  145.4780  141.5790  150.7180 C   0  0  0  0  0  2  0  0  0  0  0  0
  146.4550  142.2900  151.6580 C   0  0  0  0  0  2  0  0  0  0  0  0
  147.8620  142.3510  151.0690 C   0  0  0  0  0  2  0  0  0  0  0  0
  148.8940  141.8060  152.0570 C   0  0  0  0  0  2  0  0  0  0  0  0
  148.3840  140.4850  154.1370 C   0  0  0  0  0  1  0  0  0  0  0  0
  148.3690  141.8600  153.4910 C   0  0  0  0  0  2  0  0  0  0  0  0
  139.5230  138.7830  155.3860 O   0  0  0  0  0  0  0  0  0  0  0  0
  139.1470  137.7940  156.3460 C   0  0  0  0  0  2  0  0  0  0  0  0
  137.6170  137.8020  156.4190 C   0  0  1  0  0  3  0  0  0  0  0  0
  137.0740  138.7350  155.4820 O   0  0  0  0  0  0  0  0  0  0  0  0
  137.1010  139.6270  155.8600 H   0  0  0  0  0  0  0  0  0  0  0  0
  137.0560  136.4090  156.1340 C   0  0  0  0  0  2  0  0  0  0  0  0
  135.8430  136.4780  155.2100 C   0  0  0  0  0  2  0  0  0  0  0  0
  136.1500  135.8620  153.8490 C   0  0  0  0  0  2  0  0  0  0  0  0
  135.3250  134.6760  153.5680 N   0  0  0  0  0  4  0  0  0  0  0  0
  133.8920  134.9610  153.6610 C   0  0  0  0  0  1  0  0  0  0  0  0
  135.6400  134.1730  152.2290 C   0  0  0  0  0  1  0  0  0  0  0  0
  135.5430  133.9730  154.2750 H   0  0  0  0  0  0  0  0  0  0  0  0
  1  2  1  0  0  0  0
  2  3  2  0  0  0  0
  4  3  1  0  0  0  0
  4 22  1  0  0  0  0
  5  4  2  0  0  0  0
  6  1  2  0  0  0  0
  6  5  1  0  0  0  0
  7  5  1  0  0  0  0
  8  7  1  0  0  0  0
  9 12  1  0  0  0  0
  9  1  1  0  0  0  0
 10 14  1  0  0  0  0
 10 12  1  0  0  0  0
 11 10  2  0  0  0  0
 12 13  1  0  0  0  0
 15 14  1  0  0  0  0
 15 16  1  0  0  0  0
 16 17  1  0  0  0  0
 18 17  1  0  0  0  0
 18 19  1  0  0  0  0
 19 21  1  0  0  0  0
 21 20  1  0  0  0  0
 22 23  1  0  0  0  0
 23 24  1  0  0  0  0
 24 27  1  6  0  0  0
 25 26  1  0  0  0  0
 25 24  1  0  0  0  0
 28 27  1  0  0  0  0
 29 28  1  0  0  0  0
 30 31  1  0  0  0  0
 30 29  1  0  0  0  0
 30 33  1  0  0  0  0
 32 30  1  0  0  0  0
M  END
>  <MODEL>
2

>  <REMARK>
 VINA RESULT:    -6.691      4.013     10.052
 INTER + INTRA:         -15.017
 INTER:                 -13.283
 INTRA:                  -1.734
 UNBOUND:                -1.480
  Name = CHEMBL366374
  22 active torsions:
  status: ('A' for Active; 'I' for Inactive)
    1  A    between atoms: C_1  and  C_2
    2  A    between atoms: C_2  and  C_3
    3  A    between atoms: C_3  and  C_4
    4  A    between atoms: C_4  and  C_5
    5  A    between atoms: C_5  and  C_6
    6  A    between atoms: C_6  and  C_7
    7  A    between atoms: C_7  and  C_8
    8  A    between atoms: C_8  and  C_9
    9  A    between atoms: N_11  and  C_12
   10  A    between atoms: C_12  and  C_13
   11  A    between atoms: C_16  and  O_17
   12  A    between atoms: O_17  and  C_18
   13  A    between atoms: C_18  and  C_19
   14  A    between atoms: C_19  and  O_20
   15  A    between atoms: C_19  and  C_21
   16  A    between atoms: C_21  and  C_22
   17  A    between atoms: C_22  and  C_23
   18  A    between atoms: C_23  and  N_24
   19  A    between atoms: N_24  and  C_25
   20  A    between atoms: N_24  and  C_26
   21  A    between atoms: C_27  and  O_28
   22  A    between atoms: O_28  and  C_29
                            x       y       z     vdW  Elec       q    Type
                         _______ _______ _______ _____ _____    ______ ____

>  <TORSDO>
F 18

>  <SCORE>
-6.691

>  <RMSD_LB>
4.013

>  <RMSD_UB>
10.052

$$$$
CHEMBL366374
 OpenBabel10172500583D

 33 33  0  0  1  0  0  0  0  0999 V2000
  137.0640  136.8160  153.6670 C   0  0  0  0  0  0  0  0  0  0  0  0
  137.0540  136.6870  152.2800 C   0  0  0  0  0  3  0  0  0  0  0  0
  136.1900  135.7950  151.6570 C   0  0  0  0  0  3  0  0  0  0  0  0
  135.3070  135.0010  152.4170 C   0  0  0  0  0  0  0  0  0  0  0  0
  135.3100  135.1240  153.8180 C   0  0  0  0  0  0  0  0  0  0  0  0
  136.1580  136.0540  154.4250 C   0  0  0  0  0  3  0  0  0  0  0  0
  134.5230  134.4410  154.7110 O   0  0  0  0  0  0  0  0  0  0  0  0
  134.6820  134.7420  156.0950 C   0  0  0  0  0  1  0  0  0  0  0  0
  138.0230  137.7580  154.3320 C   0  0  0  0  0  2  0  0  0  0  0  0
  140.2780  138.6470  154.0600 C   0  0  0  0  0  0  0  0  0  0  0  0
  140.2660  139.1820  155.1550 O   0  0  0  0  0  0  0  0  0  0  0  0
  139.2270  137.9030  153.5680 N   0  0  0  0  0  0  0  0  0  0  0  0
  139.3040  137.4680  152.6880 H   0  0  0  0  0  0  0  0  0  0  0  0
  141.4640  138.7290  153.1160 C   0  0  0  0  0  2  0  0  0  0  0  0
  141.5480  137.4740  152.2530 C   0  0  0  0  0  2  0  0  0  0  0  0
  142.0820  137.7570  150.8530 C   0  0  0  0  0  2  0  0  0  0  0  0
  141.3360  136.9080  149.8210 C   0  0  0  0  0  2  0  0  0  0  0  0
  139.8230  137.0480  149.9630 C   0  0  0  0  0  2  0  0  0  0  0  0
  139.3120  138.2730  149.2030 C   0  0  0  0  0  2  0  0  0  0  0  0
  139.3990  140.4290  150.4960 C   0  0  0  0  0  1  0  0  0  0  0  0
  138.5530  139.2220  150.1280 C   0  0  0  0  0  2  0  0  0  0  0  0
  134.4340  134.1260  151.8660 O   0  0  0  0  0  0  0  0  0  0  0  0
  134.2360  134.1620  150.4500 C   0  0  0  0  0  2  0  0  0  0  0  0
  132.8130  134.6760  150.2120 C   0  0  1  0  0  3  0  0  0  0  0  0
  131.9530  134.2960  151.2890 O   0  0  0  0  0  0  0  0  0  0  0  0
  131.1820  134.8830  151.3100 H   0  0  0  0  0  0  0  0  0  0  0  0
  132.8070  136.1980  150.0690 C   0  0  0  0  0  2  0  0  0  0  0  0
  133.5190  136.6390  148.7930 C   0  0  0  0  0  2  0  0  0  0  0  0
  132.5200  136.9720  147.6890 C   0  0  0  0  0  2  0  0  0  0  0  0
  132.8290  136.2860  146.4250 N   0  0  0  0  0  4  0  0  0  0  0  0
  133.1430  137.2230  145.3450 C   0  0  0  0  0  1  0  0  0  0  0  0
  133.9600  135.3760  146.6310 C   0  0  0  0  0  1  0  0  0  0  0  0
  131.9980  135.7640  146.1450 H   0  0  0  0  0  0  0  0  0  0  0  0
  1  9  1  0  0  0  0
  1  6  1  0  0  0  0
  2  1  2  0  0  0  0
  3  2  1  0  0  0  0
  3  4  2  0  0  0  0
  4  5  1  0  0  0  0
  5  6  2  0  0  0  0
  5  7  1  0  0  0  0
  7  8  1  0  0  0  0
 10 11  2  0  0  0  0
 12 10  1  0  0  0  0
 12  9  1  0  0  0  0
 13 12  1  0  0  0  0
 14 10  1  0  0  0  0
 15 14  1  0  0  0  0
 16 15  1  0  0  0  0
 17 18  1  0  0  0  0
 17 16  1  0  0  0  0
 19 18  1  0  0  0  0
 19 21  1  0  0  0  0
 21 20  1  0  0  0  0
 22  4  1  0  0  0  0
 23 22  1  0  0  0  0
 24 27  1  1  0  0  0
 24 23  1  0  0  0  0
 24 25  1  0  0  0  0
 25 26  1  0  0  0  0
 28 27  1  0  0  0  0
 29 28  1  0  0  0  0
 30 32  1  0  0  0  0
 30 29  1  0  0  0  0
 31 30  1  0  0  0  0
 33 30  1  0  0  0  0
M  END
>  <MODEL>
3

>  <REMARK>
 VINA RESULT:    -6.664      2.290      7.552
 INTER + INTRA:         -14.962
 INTER:                 -12.432
 INTRA:                  -2.530
 UNBOUND:                -1.480
  Name = CHEMBL366374
  22 active torsions:
  status: ('A' for Active; 'I' for Inactive)
    1  A    between atoms: C_1  and  C_2
    2  A    between atoms: C_2  and  C_3
    3  A    between atoms: C_3  and  C_4
    4  A    between atoms: C_4  and  C_5
    5  A    between atoms: C_5  and  C_6
    6  A    between atoms: C_6  and  C_7
    7  A    between atoms: C_7  and  C_8
    8  A    between atoms: C_8  and  C_9
    9  A    between atoms: N_11  and  C_12
   10  A    between atoms: C_12  and  C_13
   11  A    between atoms: C_16  and  O_17
   12  A    between atoms: O_17  and  C_18
   13  A    between atoms: C_18  and  C_19
   14  A    between atoms: C_19  and  O_20
   15  A    between atoms: C_19  and  C_21
   16  A    between atoms: C_21  and  C_22
   17  A    between atoms: C_22  and  C_23
   18  A    between atoms: C_23  and  N_24
   19  A    between atoms: N_24  and  C_25
   20  A    between atoms: N_24  and  C_26
   21  A    between atoms: C_27  and  O_28
   22  A    between atoms: O_28  and  C_29
                            x       y       z     vdW  Elec       q    Type
                         _______ _______ _______ _____ _____    ______ ____

>  <TORSDO>
F 18

>  <SCORE>
-6.664

>  <RMSD_LB>
2.290

>  <RMSD_UB>
7.552

$$$$
CHEMBL366374
 OpenBabel10172500583D

 33 33  0  0  1  0  0  0  0  0999 V2000
  134.6620  135.4810  153.0070 C   0  0  0  0  0  0  0  0  0  0  0  0
  135.5350  134.4370  152.7060 C   0  0  0  0  0  3  0  0  0  0  0  0
  135.4570  133.7780  151.4850 C   0  0  0  0  0  3  0  0  0  0  0  0
  134.4920  134.1510  150.5280 C   0  0  0  0  0  0  0  0  0  0  0  0
  133.6070  135.2030  150.8230 C   0  0  0  0  0  0  0  0  0  0  0  0
  133.7240  135.8800  152.0390 C   0  0  0  0  0  3  0  0  0  0  0  0
  132.6140  135.7000  150.0160 O   0  0  0  0  0  0  0  0  0  0  0  0
  132.8140  136.9890  149.4440 C   0  0  0  0  0  1  0  0  0  0  0  0
  134.7330  136.1650  154.3390 C   0  0  0  0  0  2  0  0  0  0  0  0
  136.6660  136.7980  155.6870 C   0  0  0  0  0  0  0  0  0  0  0  0
  136.3240  137.9670  155.7380 O   0  0  0  0  0  0  0  0  0  0  0  0
  135.9370  135.8240  155.0380 N   0  0  0  0  0  0  0  0  0  0  0  0
  136.2460  134.8890  155.0550 H   0  0  0  0  0  0  0  0  0  0  0  0
  137.9290  136.2790  156.3480 C   0  0  0  0  0  2  0  0  0  0  0  0
  138.7940  137.4390  156.8330 C   0  0  0  0  0  2  0  0  0  0  0  0
  140.0670  137.6080  156.0110 C   0  0  0  0  0  2  0  0  0  0  0  0
  139.8110  138.5460  154.8280 C   0  0  0  0  0  2  0  0  0  0  0  0
  140.7420  138.2430  153.6570 C   0  0  0  0  0  2  0  0  0  0  0  0
  139.9600  137.6830  152.4680 C   0  0  0  0  0  2  0  0  0  0  0  0
  137.6730  137.2130  151.5290 C   0  0  0  0  0  1  0  0  0  0  0  0
  138.4550  137.8390  152.6720 C   0  0  0  0  0  2  0  0  0  0  0  0
  134.3790  133.5540  149.3180 O   0  0  0  0  0  0  0  0  0  0  0  0
  135.0190  134.1640  148.1940 C   0  0  0  0  0  2  0  0  0  0  0  0
  134.0960  133.9580  146.9890 C   0  0  1  0  0  3  0  0  0  0  0  0
  132.7410  134.2550  147.3370 O   0  0  0  0  0  0  0  0  0  0  0  0
  132.3810  134.9030  146.7130 H   0  0  0  0  0  0  0  0  0  0  0  0
  134.5270  134.8450  145.8220 C   0  0  0  0  0  2  0  0  0  0  0  0
  135.4650  135.9570  146.2860 C   0  0  0  0  0  2  0  0  0  0  0  0
  134.8030  137.3260  146.1640 C   0  0  0  0  0  2  0  0  0  0  0  0
  135.4670  138.3480  146.9890 N   0  0  0  0  0  4  0  0  0  0  0  0
  136.2770  137.7610  148.0570 C   0  0  0  0  0  1  0  0  0  0  0  0
  136.3130  139.1850  146.1340 C   0  0  0  0  0  1  0  0  0  0  0  0
  134.7390  138.9100  147.4300 H   0  0  0  0  0  0  0  0  0  0  0  0
  1  9  1  0  0  0  0
  2  1  1  0  0  0  0
  3  2  2  0  0  0  0
  4  5  2  0  0  0  0
  4  3  1  0  0  0  0
  5  6  1  0  0  0  0
  6  1  2  0  0  0  0
  7  5  1  0  0  0  0
  8  7  1  0  0  0  0
  9 12  1  0  0  0  0
 10 11  2  0  0  0  0
 10 14  1  0  0  0  0
 12 13  1  0  0  0  0
 12 10  1  0  0  0  0
 14 15  1  0  0  0  0
 16 15  1  0  0  0  0
 17 16  1  0  0  0  0
 18 17  1  0  0  0  0
 19 21  1  0  0  0  0
 19 18  1  0  0  0  0
 20 21  1  0  0  0  0
 22  4  1  0  0  0  0
 23 22  1  0  0  0  0
 24 27  1  6  0  0  0
 24 25  1  0  0  0  0
 24 23  1  0  0  0  0
 26 25  1  0  0  0  0
 27 28  1  0  0  0  0
 29 28  1  0  0  0  0
 29 30  1  0  0  0  0
 30 33  1  0  0  0  0
 30 31  1  0  0  0  0
 32 30  1  0  0  0  0
M  END
>  <MODEL>
4

>  <REMARK>
 VINA RESULT:    -6.586      2.799      7.772
 INTER + INTRA:         -14.804
 INTER:                 -12.284
 INTRA:                  -2.520
 UNBOUND:                -1.480
  Name = CHEMBL366374
  22 active torsions:
  status: ('A' for Active; 'I' for Inactive)
    1  A    between atoms: C_1  and  C_2
    2  A    between atoms: C_2  and  C_3
    3  A    between atoms: C_3  and  C_4
    4  A    between atoms: C_4  and  C_5
    5  A    between atoms: C_5  and  C_6
    6  A    between atoms: C_6  and  C_7
    7  A    between atoms: C_7  and  C_8
    8  A    between atoms: C_8  and  C_9
    9  A    between atoms: N_11  and  C_12
   10  A    between atoms: C_12  and  C_13
   11  A    between atoms: C_16  and  O_17
   12  A    between atoms: O_17  and  C_18
   13  A    between atoms: C_18  and  C_19
   14  A    between atoms: C_19  and  O_20
   15  A    between atoms: C_19  and  C_21
   16  A    between atoms: C_21  and  C_22
   17  A    between atoms: C_22  and  C_23
   18  A    between atoms: C_23  and  N_24
   19  A    between atoms: N_24  and  C_25
   20  A    between atoms: N_24  and  C_26
   21  A    between atoms: C_27  and  O_28
   22  A    between atoms: O_28  and  C_29
                            x       y       z     vdW  Elec       q    Type
                         _______ _______ _______ _____ _____    ______ ____

>  <TORSDO>
F 18

>  <SCORE>
-6.586

>  <RMSD_LB>
2.799

>  <RMSD_UB>
7.772

$$$$
CHEMBL366374
 OpenBabel10172500583D

 33 33  0  0  1  0  0  0  0  0999 V2000
  137.0610  136.4260  155.6460 C   0  0  0  0  0  0  0  0  0  0  0  0
  137.8880  136.6250  156.7490 C   0  0  0  0  0  3  0  0  0  0  0  0
  138.9880  137.4720  156.6650 C   0  0  0  0  0  3  0  0  0  0  0  0
  139.2870  138.1440  155.4630 C   0  0  0  0  0  0  0  0  0  0  0  0
  138.4570  137.9480  154.3440 C   0  0  0  0  0  0  0  0  0  0  0  0
  137.3350  137.1240  154.4570 C   0  0  0  0  0  3  0  0  0  0  0  0
  138.5920  138.5180  153.1030 O   0  0  0  0  0  0  0  0  0  0  0  0
  138.5540  137.6520  151.9730 C   0  0  0  0  0  1  0  0  0  0  0  0
  135.8960  135.4860  155.7360 C   0  0  0  0  0  2  0  0  0  0  0  0
  134.2220  134.9870  154.0320 C   0  0  0  0  0  0  0  0  0  0  0  0
  133.3150  135.4540  154.6990 O   0  0  0  0  0  0  0  0  0  0  0  0
  135.5370  134.9740  154.4450 N   0  0  0  0  0  0  0  0  0  0  0  0
  136.2330  134.6100  153.8520 H   0  0  0  0  0  0  0  0  0  0  0  0
  134.0060  134.3800  152.6590 C   0  0  0  0  0  2  0  0  0  0  0  0
  133.7170  135.4700  151.6310 C   0  0  0  0  0  2  0  0  0  0  0  0
  132.5220  135.1400  150.7430 C   0  0  0  0  0  2  0  0  0  0  0  0
  132.5310  133.6540  150.3760 C   0  0  0  0  0  2  0  0  0  0  0  0
  133.0090  133.4290  148.9440 C   0  0  0  0  0  2  0  0  0  0  0  0
  132.9710  134.7320  148.1430 C   0  0  0  0  0  2  0  0  0  0  0  0
  135.4500  134.3080  148.2180 C   0  0  0  0  0  1  0  0  0  0  0  0
  134.3220  135.0210  147.4920 C   0  0  0  0  0  2  0  0  0  0  0  0
  140.3350  138.9900  155.3270 O   0  0  0  0  0  0  0  0  0  0  0  0
  141.6580  138.4510  155.3760 C   0  0  0  0  0  2  0  0  0  0  0  0
  142.0930  138.2070  153.9280 C   0  0  1  0  0  3  0  0  0  0  0  0
  141.5740  139.2240  153.0680 O   0  0  0  0  0  0  0  0  0  0  0  0
  141.8470  139.0470  152.1550 H   0  0  0  0  0  0  0  0  0  0  0  0
  143.6180  138.1790  153.8210 C   0  0  0  0  0  2  0  0  0  0  0  0
  144.2480  139.3630  154.5490 C   0  0  0  0  0  2  0  0  0  0  0  0
  145.3070  140.0430  153.6870 C   0  0  0  0  0  2  0  0  0  0  0  0
  146.3560  140.6900  154.4910 N   0  0  0  0  0  4  0  0  0  0  0  0
  147.5890  139.9030  154.5330 C   0  0  0  0  0  1  0  0  0  0  0  0
  146.6390  142.0180  153.9390 C   0  0  0  0  0  1  0  0  0  0  0  0
  146.0100  140.7670  155.4480 H   0  0  0  0  0  0  0  0  0  0  0  0
  1  9  1  0  0  0  0
  1  2  1  0  0  0  0
  3  2  2  0  0  0  0
  4  3  1  0  0  0  0
  5  6  1  0  0  0  0
  5  4  2  0  0  0  0
  6  1  2  0  0  0  0
  7  5  1  0  0  0  0
  8  7  1  0  0  0  0
 10 12  1  0  0  0  0
 10 11  2  0  0  0  0
 12  9  1  0  0  0  0
 13 12  1  0  0  0  0
 14 10  1  0  0  0  0
 15 14  1  0  0  0  0
 16 15  1  0  0  0  0
 17 16  1  0  0  0  0
 18 17  1  0  0  0  0
 19 18  1  0  0  0  0
 21 19  1  0  0  0  0
 21 20  1  0  0  0  0
 22 23  1  0  0  0  0
 22  4  1  0  0  0  0
 24 27  1  1  0  0  0
 24 23  1  0  0  0  0
 25 24  1  0  0  0  0
 26 25  1  0  0  0  0
 27 28  1  0  0  0  0
 29 30  1  0  0  0  0
 29 28  1  0  0  0  0
 30 31  1  0  0  0  0
 30 33  1  0  0  0  0
 32 30  1  0  0  0  0
M  END
>  <MODEL>
5

>  <REMARK>
 VINA RESULT:    -6.564      2.668      3.794
 INTER + INTRA:         -14.759
 INTER:                 -13.021
 INTRA:                  -1.738
 UNBOUND:                -1.480
  Name = CHEMBL366374
  22 active torsions:
  status: ('A' for Active; 'I' for Inactive)
    1  A    between atoms: C_1  and  C_2
    2  A    between atoms: C_2  and  C_3
    3  A    between atoms: C_3  and  C_4
    4  A    between atoms: C_4  and  C_5
    5  A    between atoms: C_5  and  C_6
    6  A    between atoms: C_6  and  C_7
    7  A    between atoms: C_7  and  C_8
    8  A    between atoms: C_8  and  C_9
    9  A    between atoms: N_11  and  C_12
   10  A    between atoms: C_12  and  C_13
   11  A    between atoms: C_16  and  O_17
   12  A    between atoms: O_17  and  C_18
   13  A    between atoms: C_18  and  C_19
   14  A    between atoms: C_19  and  O_20
   15  A    between atoms: C_19  and  C_21
   16  A    between atoms: C_21  and  C_22
   17  A    between atoms: C_22  and  C_23
   18  A    between atoms: C_23  and  N_24
   19  A    between atoms: N_24  and  C_25
   20  A    between atoms: N_24  and  C_26
   21  A    between atoms: C_27  and  O_28
   22  A    between atoms: O_28  and  C_29
                            x       y       z     vdW  Elec       q    Type
                         _______ _______ _______ _____ _____    ______ ____

>  <TORSDO>
F 18

>  <SCORE>
-6.564

>  <RMSD_LB>
2.668

>  <RMSD_UB>
3.794

$$$$
CHEMBL366374
 OpenBabel10172500583D

 33 33  0  0  1  0  0  0  0  0999 V2000
  136.1170  135.9120  156.5190 C   0  0  0  0  0  0  0  0  0  0  0  0
  137.0110  135.9130  155.4510 C   0  0  0  0  0  3  0  0  0  0  0  0
  138.1760  136.6700  155.5030 C   0  0  0  0  0  3  0  0  0  0  0  0
  138.4750  137.4520  156.6370 C   0  0  0  0  0  0  0  0  0  0  0  0
  137.5780  137.4570  157.7200 C   0  0  0  0  0  0  0  0  0  0  0  0
  136.4310  136.6600  157.6670 C   0  0  0  0  0  3  0  0  0  0  0  0
  137.7070  138.1490  158.8980 O   0  0  0  0  0  0  0  0  0  0  0  0
  136.8520  137.7780  159.9760 C   0  0  0  0  0  1  0  0  0  0  0  0
  134.8480  135.1180  156.4410 C   0  0  0  0  0  2  0  0  0  0  0  0
  134.0850  135.2140  154.1260 C   0  0  0  0  0  0  0  0  0  0  0  0
  133.6970  136.3640  154.2370 O   0  0  0  0  0  0  0  0  0  0  0  0
  134.6870  134.5150  155.1510 N   0  0  0  0  0  0  0  0  0  0  0  0
  135.0080  133.5980  154.9950 H   0  0  0  0  0  0  0  0  0  0  0  0
  133.9620  134.4240  152.8360 C   0  0  0  0  0  2  0  0  0  0  0  0
  133.4530  135.3180  151.7080 C   0  0  0  0  0  2  0  0  0  0  0  0
  134.5780  135.8560  150.8310 C   0  0  0  0  0  2  0  0  0  0  0  0
  135.9280  135.3260  151.3190 C   0  0  0  0  0  2  0  0  0  0  0  0
  136.8740  136.4620  151.7030 C   0  0  0  0  0  2  0  0  0  0  0  0
  137.2630  137.2880  150.4760 C   0  0  0  0  0  2  0  0  0  0  0  0
  139.7680  137.0530  150.4430 C   0  0  0  0  0  1  0  0  0  0  0  0
  138.4640  136.6800  149.7560 C   0  0  0  0  0  2  0  0  0  0  0  0
  139.6000  138.1970  156.7490 O   0  0  0  0  0  0  0  0  0  0  0  0
  140.6950  137.9130  155.8760 C   0  0  0  0  0  2  0  0  0  0  0  0
  140.7030  139.0040  154.8010 C   0  0  1  0  0  3  0  0  0  0  0  0
  141.5570  140.0840  155.1870 O   0  0  0  0  0  0  0  0  0  0  0  0
  141.1420  140.9260  154.9450 H   0  0  0  0  0  0  0  0  0  0  0  0
  141.1730  138.4380  153.4610 C   0  0  0  0  0  2  0  0  0  0  0  0
  142.5750  137.8440  153.5700 C   0  0  0  0  0  2  0  0  0  0  0  0
  143.5700  138.6100  152.7040 C   0  0  0  0  0  2  0  0  0  0  0  0
  144.1590  139.7610  153.4060 N   0  0  0  0  0  4  0  0  0  0  0  0
  144.8980  139.3630  154.6050 C   0  0  0  0  0  1  0  0  0  0  0  0
  145.0520  140.4800  152.4930 C   0  0  0  0  0  1  0  0  0  0  0  0
  143.3930  140.3650  153.7060 H   0  0  0  0  0  0  0  0  0  0  0  0
  1  6  1  0  0  0  0
  2  3  1  0  0  0  0
  2  1  2  0  0  0  0
  3  4  2  0  0  0  0
  4 22  1  0  0  0  0
  4  5  1  0  0  0  0
  5  7  1  0  0  0  0
  6  5  2  0  0  0  0
  7  8  1  0  0  0  0
  9  1  1  0  0  0  0
 10 11  2  0  0  0  0
 10 12  1  0  0  0  0
 12  9  1  0  0  0  0
 13 12  1  0  0  0  0
 14 10  1  0  0  0  0
 15 14  1  0  0  0  0
 16 17  1  0  0  0  0
 16 15  1  0  0  0  0
 17 18  1  0  0  0  0
 19 18  1  0  0  0  0
 21 20  1  0  0  0  0
 21 19  1  0  0  0  0
 23 22  1  0  0  0  0
 24 27  1  6  0  0  0
 24 25  1  0  0  0  0
 24 23  1  0  0  0  0
 26 25  1  0  0  0  0
 27 28  1  0  0  0  0
 29 30  1  0  0  0  0
 29 28  1  0  0  0  0
 30 33  1  0  0  0  0
 30 31  1  0  0  0  0
 32 30  1  0  0  0  0
M  END
>  <MODEL>
6

>  <REMARK>
 VINA RESULT:    -6.504      2.180      3.392
 INTER + INTRA:         -14.639
 INTER:                 -12.913
 INTRA:                  -1.726
 UNBOUND:                -1.480
  Name = CHEMBL366374
  22 active torsions:
  status: ('A' for Active; 'I' for Inactive)
    1  A    between atoms: C_1  and  C_2
    2  A    between atoms: C_2  and  C_3
    3  A    between atoms: C_3  and  C_4
    4  A    between atoms: C_4  and  C_5
    5  A    between atoms: C_5  and  C_6
    6  A    between atoms: C_6  and  C_7
    7  A    between atoms: C_7  and  C_8
    8  A    between atoms: C_8  and  C_9
    9  A    between atoms: N_11  and  C_12
   10  A    between atoms: C_12  and  C_13
   11  A    between atoms: C_16  and  O_17
   12  A    between atoms: O_17  and  C_18
   13  A    between atoms: C_18  and  C_19
   14  A    between atoms: C_19  and  O_20
   15  A    between atoms: C_19  and  C_21
   16  A    between atoms: C_21  and  C_22
   17  A    between atoms: C_22  and  C_23
   18  A    between atoms: C_23  and  N_24
   19  A    between atoms: N_24  and  C_25
   20  A    between atoms: N_24  and  C_26
   21  A    between atoms: C_27  and  O_28
   22  A    between atoms: O_28  and  C_29
                            x       y       z     vdW  Elec       q    Type
                         _______ _______ _______ _____ _____    ______ ____

>  <TORSDO>
F 18

>  <SCORE>
-6.504

>  <RMSD_LB>
2.180

>  <RMSD_UB>
3.392

$$$$
CHEMBL366374
 OpenBabel10172500583D

 33 33  0  0  1  0  0  0  0  0999 V2000
  142.3530  138.5170  152.5320 C   0  0  0  0  0  0  0  0  0  0  0  0
  141.0580  138.1750  152.1470 C   0  0  0  0  0  3  0  0  0  0  0  0
  140.0090  138.2400  153.0570 C   0  0  0  0  0  3  0  0  0  0  0  0
  140.2340  138.6510  154.3860 C   0  0  0  0  0  0  0  0  0  0  0  0
  141.5380  138.9970  154.7830 C   0  0  0  0  0  0  0  0  0  0  0  0
  142.5740  138.9630  153.8460 C   0  0  0  0  0  3  0  0  0  0  0  0
  141.9410  139.4200  156.0250 O   0  0  0  0  0  0  0  0  0  0  0  0
  143.1640  140.1460  156.1090 C   0  0  0  0  0  1  0  0  0  0  0  0
  143.4840  138.4130  151.5530 C   0  0  0  0  0  2  0  0  0  0  0  0
  145.3350  139.9150  151.0330 C   0  0  0  0  0  0  0  0  0  0  0  0
  146.1650  139.0320  151.1510 O   0  0  0  0  0  0  0  0  0  0  0  0
  143.9810  139.7080  151.1900 N   0  0  0  0  0  0  0  0  0  0  0  0
  143.3520  140.4530  151.0530 H   0  0  0  0  0  0  0  0  0  0  0  0
  145.6980  141.3460  150.6810 C   0  0  0  0  0  2  0  0  0  0  0  0
  145.6940  142.2210  151.9320 C   0  0  0  0  0  2  0  0  0  0  0  0
  147.0450  142.2430  152.6390 C   0  0  0  0  0  2  0  0  0  0  0  0
  146.9810  141.4170  153.9260 C   0  0  0  0  0  2  0  0  0  0  0  0
  148.0520  140.3290  153.9520 C   0  0  0  0  0  2  0  0  0  0  0  0
  147.6730  139.2110  154.9240 C   0  0  0  0  0  2  0  0  0  0  0  0
  146.1700  137.3380  154.1720 C   0  0  0  0  0  1  0  0  0  0  0  0
  146.2300  138.7580  154.7110 C   0  0  0  0  0  2  0  0  0  0  0  0
  139.2500  138.7460  155.3100 O   0  0  0  0  0  0  0  0  0  0  0  0
  138.9960  137.6210  156.1540 C   0  0  0  0  0  2  0  0  0  0  0  0
  137.4750  137.4800  156.2640 C   0  0  1  0  0  3  0  0  0  0  0  0
  136.8580  137.6670  154.9870 O   0  0  0  0  0  0  0  0  0  0  0  0
  136.0250  137.1730  154.9550 H   0  0  0  0  0  0  0  0  0  0  0  0
  137.0980  136.1040  156.8140 C   0  0  0  0  0  2  0  0  0  0  0  0
  136.4490  136.2150  158.1910 C   0  0  0  0  0  2  0  0  0  0  0  0
  136.0600  134.8440  158.7310 C   0  0  0  0  0  2  0  0  0  0  0  0
  134.6270  134.7510  159.0540 N   0  0  0  0  0  4  0  0  0  0  0  0
  134.1560  135.9010  159.8280 C   0  0  0  0  0  1  0  0  0  0  0  0
  133.8570  134.6460  157.8120 C   0  0  0  0  0  1  0  0  0  0  0  0
  134.4930  133.9190  159.6290 H   0  0  0  0  0  0  0  0  0  0  0  0
  1  6  1  0  0  0  0
  2  1  2  0  0  0  0
  2  3  1  0  0  0  0
  3  4  2  0  0  0  0
  4  5  1  0  0  0  0
  4 22  1  0  0  0  0
  5  7  1  0  0  0  0
  6  5  2  0  0  0  0
  7  8  1  0  0  0  0
  9  1  1  0  0  0  0
 10 11  2  0  0  0  0
 10 12  1  0  0  0  0
 12  9  1  0  0  0  0
 13 12  1  0  0  0  0
 14 10  1  0  0  0  0
 14 15  1  0  0  0  0
 15 16  1  0  0  0  0
 16 17  1  0  0  0  0
 17 18  1  0  0  0  0
 18 19  1  0  0  0  0
 20 21  1  0  0  0  0
 21 19  1  0  0  0  0
 22 23  1  0  0  0  0
 24 23  1  6  0  0  0
 24 27  1  0  0  0  0
 25 24  1  0  0  0  0
 26 25  1  0  0  0  0
 27 28  1  0  0  0  0
 28 29  1  0  0  0  0
 29 30  1  0  0  0  0
 30 33  1  0  0  0  0
 30 31  1  0  0  0  0
 32 30  1  0  0  0  0
M  END
>  <MODEL>
7

>  <REMARK>
 VINA RESULT:    -6.455      4.767     10.396
 INTER + INTRA:         -14.539
 INTER:                 -12.777
 INTRA:                  -1.762
 UNBOUND:                -1.480
  Name = CHEMBL366374
  22 active torsions:
  status: ('A' for Active; 'I' for Inactive)
    1  A    between atoms: C_1  and  C_2
    2  A    between atoms: C_2  and  C_3
    3  A    between atoms: C_3  and  C_4
    4  A    between atoms: C_4  and  C_5
    5  A    between atoms: C_5  and  C_6
    6  A    between atoms: C_6  and  C_7
    7  A    between atoms: C_7  and  C_8
    8  A    between atoms: C_8  and  C_9
    9  A    between atoms: N_11  and  C_12
   10  A    between atoms: C_12  and  C_13
   11  A    between atoms: C_16  and  O_17
   12  A    between atoms: O_17  and  C_18
   13  A    between atoms: C_18  and  C_19
   14  A    between atoms: C_19  and  O_20
   15  A    between atoms: C_19  and  C_21
   16  A    between atoms: C_21  and  C_22
   17  A    between atoms: C_22  and  C_23
   18  A    between atoms: C_23  and  N_24
   19  A    between atoms: N_24  and  C_25
   20  A    between atoms: N_24  and  C_26
   21  A    between atoms: C_27  and  O_28
   22  A    between atoms: O_28  and  C_29
                            x       y       z     vdW  Elec       q    Type
                         _______ _______ _______ _____ _____    ______ ____

>  <TORSDO>
F 18

>  <SCORE>
-6.455

>  <RMSD_LB>
4.767

>  <RMSD_UB>
10.396

$$$$
CHEMBL366374
 OpenBabel10172500583D

 33 33  0  0  1  0  0  0  0  0999 V2000
  140.7120  138.3450  154.7960 C   0  0  0  0  0  0  0  0  0  0  0  0
  140.1040  138.1000  156.0250 C   0  0  0  0  0  3  0  0  0  0  0  0
  138.7640  137.7340  156.0930 C   0  0  0  0  0  3  0  0  0  0  0  0
  137.9950  137.6050  154.9190 C   0  0  0  0  0  0  0  0  0  0  0  0
  138.6010  137.8500  153.6730 C   0  0  0  0  0  0  0  0  0  0  0  0
  139.9580  138.1790  153.6210 C   0  0  0  0  0  3  0  0  0  0  0  0
  138.0120  137.7690  152.4360 O   0  0  0  0  0  0  0  0  0  0  0  0
  138.8490  137.9370  151.2960 C   0  0  0  0  0  1  0  0  0  0  0  0
  142.1490  138.7700  154.7340 C   0  0  0  0  0  2  0  0  0  0  0  0
  143.4700  139.0900  152.7090 C   0  0  0  0  0  0  0  0  0  0  0  0
  144.1690  138.1180  152.9380 O   0  0  0  0  0  0  0  0  0  0  0  0
  142.4310  139.4840  153.5240 N   0  0  0  0  0  0  0  0  0  0  0  0
  141.8800  140.2610  153.2740 H   0  0  0  0  0  0  0  0  0  0  0  0
  143.6570  139.9690  151.4870 C   0  0  0  0  0  2  0  0  0  0  0  0
  145.1230  140.3620  151.3300 C   0  0  0  0  0  2  0  0  0  0  0  0
  145.3130  141.8640  151.1440 C   0  0  0  0  0  2  0  0  0  0  0  0
  146.5260  142.3460  151.9420 C   0  0  0  0  0  2  0  0  0  0  0  0
  146.3550  142.0910  153.4380 C   0  0  0  0  0  2  0  0  0  0  0  0
  147.7090  141.8700  154.1130 C   0  0  0  0  0  2  0  0  0  0  0  0
  147.8080  139.3570  154.0440 C   0  0  0  0  0  1  0  0  0  0  0  0
  148.4230  140.6500  153.5360 C   0  0  0  0  0  2  0  0  0  0  0  0
  136.6920  137.2390  154.9230 O   0  0  0  0  0  0  0  0  0  0  0  0
  136.3620  135.8960  155.2850 C   0  0  0  0  0  2  0  0  0  0  0  0
  135.2340  135.4460  154.3520 C   0  0  1  0  0  3  0  0  0  0  0  0
  134.2710  136.4910  154.1870 O   0  0  0  0  0  0  0  0  0  0  0  0
  133.3810  136.1090  154.1610 H   0  0  0  0  0  0  0  0  0  0  0  0
  135.7900  135.0470  152.9850 C   0  0  0  0  0  2  0  0  0  0  0  0
  134.7680  134.2480  152.1820 C   0  0  0  0  0  2  0  0  0  0  0  0
  134.1810  135.0820  151.0480 C   0  0  0  0  0  2  0  0  0  0  0  0
  133.8670  134.2740  149.8590 N   0  0  0  0  0  4  0  0  0  0  0  0
  132.5350  133.6710  149.9310 C   0  0  0  0  0  1  0  0  0  0  0  0
  133.9610  135.1150  148.6630 C   0  0  0  0  0  1  0  0  0  0  0  0
  134.5450  133.5120  149.8140 H   0  0  0  0  0  0  0  0  0  0  0  0
  1  2  1  0  0  0  0
  2  3  2  0  0  0  0
  4 22  1  0  0  0  0
  4  3  1  0  0  0  0
  5  4  2  0  0  0  0
  6  5  1  0  0  0  0
  6  1  2  0  0  0  0
  7  5  1  0  0  0  0
  8  7  1  0  0  0  0
  9  1  1  0  0  0  0
 10 11  2  0  0  0  0
 10 12  1  0  0  0  0
 12  9  1  0  0  0  0
 13 12  1  0  0  0  0
 14 10  1  0  0  0  0
 15 14  1  0  0  0  0
 16 15  1  0  0  0  0
 16 17  1  0  0  0  0
 17 18  1  0  0  0  0
 18 19  1  0  0  0  0
 21 20  1  0  0  0  0
 21 19  1  0  0  0  0
 22 23  1  0  0  0  0
 24 27  1  6  0  0  0
 24 23  1  0  0  0  0
 25 24  1  0  0  0  0
 26 25  1  0  0  0  0
 28 27  1  0  0  0  0
 29 28  1  0  0  0  0
 30 31  1  0  0  0  0
 30 29  1  0  0  0  0
 32 30  1  0  0  0  0
 33 30  1  0  0  0  0
M  END
>  <MODEL>
8

>  <REMARK>
 VINA RESULT:    -6.417      3.586      9.744
 INTER + INTRA:         -14.463
 INTER:                 -13.053
 INTRA:                  -1.410
 UNBOUND:                -1.480
  Name = CHEMBL366374
  22 active torsions:
  status: ('A' for Active; 'I' for Inactive)
    1  A    between atoms: C_1  and  C_2
    2  A    between atoms: C_2  and  C_3
    3  A    between atoms: C_3  and  C_4
    4  A    between atoms: C_4  and  C_5
    5  A    between atoms: C_5  and  C_6
    6  A    between atoms: C_6  and  C_7
    7  A    between atoms: C_7  and  C_8
    8  A    between atoms: C_8  and  C_9
    9  A    between atoms: N_11  and  C_12
   10  A    between atoms: C_12  and  C_13
   11  A    between atoms: C_16  and  O_17
   12  A    between atoms: O_17  and  C_18
   13  A    between atoms: C_18  and  C_19
   14  A    between atoms: C_19  and  O_20
   15  A    between atoms: C_19  and  C_21
   16  A    between atoms: C_21  and  C_22
   17  A    between atoms: C_22  and  C_23
   18  A    between atoms: C_23  and  N_24
   19  A    between atoms: N_24  and  C_25
   20  A    between atoms: N_24  and  C_26
   21  A    between atoms: C_27  and  O_28
   22  A    between atoms: O_28  and  C_29
                            x       y       z     vdW  Elec       q    Type
                         _______ _______ _______ _____ _____    ______ ____

>  <TORSDO>
F 18

>  <SCORE>
-6.417

>  <RMSD_LB>
3.586

>  <RMSD_UB>
9.744

$$$$
CHEMBL366374
 OpenBabel10172500583D

 33 33  0  0  1  0  0  0  0  0999 V2000
  140.0390  137.8350  152.2800 C   0  0  0  0  0  0  0  0  0  0  0  0
  138.8800  137.4170  151.6280 C   0  0  0  0  0  3  0  0  0  0  0  0
  137.7050  137.2050  152.3400 C   0  0  0  0  0  3  0  0  0  0  0  0
  137.6620  137.4070  153.7340 C   0  0  0  0  0  0  0  0  0  0  0  0
  138.8270  137.8290  154.4000 C   0  0  0  0  0  0  0  0  0  0  0  0
  139.9890  138.0740  153.6640 C   0  0  0  0  0  3  0  0  0  0  0  0
  138.9690  138.0780  155.7420 O   0  0  0  0  0  0  0  0  0  0  0  0
  140.1760  137.6510  156.3670 C   0  0  0  0  0  1  0  0  0  0  0  0
  141.3110  138.0300  151.5100 C   0  0  0  0  0  2  0  0  0  0  0  0
  143.3980  138.6700  152.5980 C   0  0  0  0  0  0  0  0  0  0  0  0
  143.2980  139.8320  152.2440 O   0  0  0  0  0  0  0  0  0  0  0  0
  142.4580  137.7050  152.3050 N   0  0  0  0  0  0  0  0  0  0  0  0
  142.5760  136.7880  152.6430 H   0  0  0  0  0  0  0  0  0  0  0  0
  144.5660  138.1570  153.4190 C   0  0  0  0  0  2  0  0  0  0  0  0
  145.8860  138.6750  152.8540 C   0  0  0  0  0  2  0  0  0  0  0  0
  146.4520  139.8420  153.6560 C   0  0  0  0  0  2  0  0  0  0  0  0
  147.7120  140.3870  152.9790 C   0  0  0  0  0  2  0  0  0  0  0  0
  147.6050  141.8860  152.7120 C   0  0  0  0  0  2  0  0  0  0  0  0
  146.1590  142.2880  152.4200 C   0  0  0  0  0  2  0  0  0  0  0  0
  146.5250  142.8730  150.0010 C   0  0  0  0  0  1  0  0  0  0  0  0
  145.7790  141.9770  150.9740 C   0  0  0  0  0  2  0  0  0  0  0  0
  136.5440  137.2300  154.4750 O   0  0  0  0  0  0  0  0  0  0  0  0
  136.2900  135.9360  155.0270 C   0  0  0  0  0  2  0  0  0  0  0  0
  134.8380  135.5840  154.6900 C   0  0  1  0  0  3  0  0  0  0  0  0
  134.2560  136.5920  153.8580 O   0  0  0  0  0  0  0  0  0  0  0  0
  134.9590  137.0820  153.4040 H   0  0  0  0  0  0  0  0  0  0  0  0
  134.7610  134.2320  153.9810 C   0  0  0  0  0  2  0  0  0  0  0  0
  135.1250  134.3590  152.5040 C   0  0  0  0  0  2  0  0  0  0  0  0
  133.9880  133.8740  151.6100 C   0  0  0  0  0  2  0  0  0  0  0  0
  133.8170  134.7110  150.4120 N   0  0  0  0  0  4  0  0  0  0  0  0
  133.3660  133.9390  149.2530 C   0  0  0  0  0  1  0  0  0  0  0  0
  132.8530  135.7760  150.6990 C   0  0  0  0  0  1  0  0  0  0  0  0
  134.7280  135.1080  150.1790 H   0  0  0  0  0  0  0  0  0  0  0  0
  1  6  1  0  0  0  0
  2  1  2  0  0  0  0
  2  3  1  0  0  0  0
  3  4  2  0  0  0  0
  4  5  1  0  0  0  0
  4 22  1  0  0  0  0
  5  7  1  0  0  0  0
  6  5  2  0  0  0  0
  7  8  1  0  0  0  0
  9  1  1  0  0  0  0
  9 12  1  0  0  0  0
 10 14  1  0  0  0  0
 11 10  2  0  0  0  0
 12 10  1  0  0  0  0
 12 13  1  0  0  0  0
 15 14  1  0  0  0  0
 15 16  1  0  0  0  0
 17 16  1  0  0  0  0
 18 17  1  0  0  0  0
 19 18  1  0  0  0  0
 20 21  1  0  0  0  0
 21 19  1  0  0  0  0
 22 23  1  0  0  0  0
 24 27  1  6  0  0  0
 24 23  1  0  0  0  0
 25 24  1  0  0  0  0
 26 25  1  0  0  0  0
 28 27  1  0  0  0  0
 29 28  1  0  0  0  0
 30 32  1  0  0  0  0
 30 29  1  0  0  0  0
 31 30  1  0  0  0  0
 33 30  1  0  0  0  0
M  END
>  <MODEL>
9

>  <REMARK>
 VINA RESULT:    -6.344      3.378      9.575
 INTER + INTRA:         -14.314
 INTER:                 -12.834
 INTRA:                  -1.480
 UNBOUND:                -1.480
  Name = CHEMBL366374
  22 active torsions:
  status: ('A' for Active; 'I' for Inactive)
    1  A    between atoms: C_1  and  C_2
    2  A    between atoms: C_2  and  C_3
    3  A    between atoms: C_3  and  C_4
    4  A    between atoms: C_4  and  C_5
    5  A    between atoms: C_5  and  C_6
    6  A    between atoms: C_6  and  C_7
    7  A    between atoms: C_7  and  C_8
    8  A    between atoms: C_8  and  C_9
    9  A    between atoms: N_11  and  C_12
   10  A    between atoms: C_12  and  C_13
   11  A    between atoms: C_16  and  O_17
   12  A    between atoms: O_17  and  C_18
   13  A    between atoms: C_18  and  C_19
   14  A    between atoms: C_19  and  O_20
   15  A    between atoms: C_19  and  C_21
   16  A    between atoms: C_21  and  C_22
   17  A    between atoms: C_22  and  C_23
   18  A    between atoms: C_23  and  N_24
   19  A    between atoms: N_24  and  C_25
   20  A    between atoms: N_24  and  C_26
   21  A    between atoms: C_27  and  O_28
   22  A    between atoms: O_28  and  C_29
                            x       y       z     vdW  Elec       q    Type
                         _______ _______ _______ _____ _____    ______ ____

>  <TORSDO>
F 18

>  <SCORE>
-6.344

>  <RMSD_LB>
3.378

>  <RMSD_UB>
9.575

$$$$
