CHEMBL176740
 OpenBabel10172500283D

 34 34  0  0  1  0  0  0  0  0999 V2000
  142.2900  137.6700  152.3370 C   0  0  0  0  0  0  0  0  0  0  0  0
  142.7680  138.1420  153.5610 C   0  0  0  0  0  3  0  0  0  0  0  0
  141.8820  138.5340  154.5670 C   0  0  0  0  0  3  0  0  0  0  0  0
  140.4960  138.4630  154.3740 C   0  0  0  0  0  0  0  0  0  0  0  0
  140.0020  137.9850  153.1480 C   0  0  0  0  0  0  0  0  0  0  0  0
  140.9010  137.5580  152.1570 C   0  0  0  0  0  3  0  0  0  0  0  0
  138.6800  137.8390  152.7970 O   0  0  0  0  0  0  0  0  0  0  0  0
  138.3810  137.8250  151.4040 C   0  0  0  0  0  1  0  0  0  0  0  0
  139.5930  138.8260  155.3330 O   0  0  0  0  0  0  0  0  0  0  0  0
  139.1790  137.8400  156.2840 C   0  0  0  0  0  2  0  0  0  0  0  0
  137.6480  137.8830  156.3690 C   0  0  1  0  0  3  0  0  0  0  0  0
  137.1270  138.7710  155.3720 O   0  0  0  0  0  0  0  0  0  0  0  0
  137.4070  139.6780  155.5680 H   0  0  0  0  0  0  0  0  0  0  0  0
  137.0370  136.4840  156.1730 C   0  0  0  0  0  2  0  0  0  0  0  0
  135.8420  136.5580  155.3300 N   0  0  0  0  0  4  0  0  0  0  0  0
  135.7540  137.5020  154.9570 H   0  0  0  0  0  0  0  0  0  0  0  0
  135.0270  136.3230  155.8960 H   0  0  0  0  0  0  0  0  0  0  0  0
  135.9320  135.6130  154.2260 C   0  0  0  0  0  2  0  0  0  0  0  0
  134.7020  134.7100  154.2420 C   0  0  0  0  0  2  0  0  0  0  0  0
  134.6300  133.8920  152.9560 C   0  0  0  0  0  2  0  0  0  0  0  0
  135.8240  134.1690  152.0600 C   0  0  0  0  0  1  0  0  0  0  0  0
  143.2550  137.3190  151.2360 C   0  0  0  0  0  2  0  0  0  0  0  0
  145.1840  138.5700  150.3940 C   0  0  0  0  0  0  0  0  0  0  0  0
  145.9780  137.6770  150.6690 O   0  0  0  0  0  0  0  0  0  0  0  0
  143.8290  138.4830  150.6120 N   0  0  0  0  0  0  0  0  0  0  0  0
  143.2430  139.2270  150.3390 H   0  0  0  0  0  0  0  0  0  0  0  0
  145.6260  139.8880  149.7790 C   0  0  0  0  0  2  0  0  0  0  0  0
  144.8230  141.0480  150.3560 C   0  0  0  0  0  2  0  0  0  0  0  0
  145.7110  142.1260  150.9750 C   0  0  0  0  0  2  0  0  0  0  0  0
  146.7850  142.5530  149.9740 C   0  0  0  0  0  2  0  0  0  0  0  0
  148.1700  142.5960  150.6130 C   0  0  0  0  0  2  0  0  0  0  0  0
  148.3100  141.5050  151.6740 C   0  0  0  0  0  2  0  0  0  0  0  0
  147.9800  141.8340  154.1440 C   0  0  0  0  0  1  0  0  0  0  0  0
  148.9080  142.0630  152.9630 C   0  0  0  0  0  2  0  0  0  0  0  0
  1  2  1  0  0  0  0
  2  3  2  0  0  0  0
  4  3  1  0  0  0  0
  4  9  1  0  0  0  0
  5  4  2  0  0  0  0
  6  1  2  0  0  0  0
  6  5  1  0  0  0  0
  7  5  1  0  0  0  0
  8  7  1  0  0  0  0
  9 10  1  0  0  0  0
 10 11  1  0  0  0  0
 11 14  1  6  0  0  0
 12 13  1  0  0  0  0
 12 11  1  0  0  0  0
 15 17  1  0  0  0  0
 15 14  1  0  0  0  0
 16 15  1  0  0  0  0
 18 19  1  0  0  0  0
 18 15  1  0  0  0  0
 20 19  1  0  0  0  0
 21 20  1  0  0  0  0
 22  1  1  0  0  0  0
 23 25  1  0  0  0  0
 23 24  2  0  0  0  0
 25 22  1  0  0  0  0
 26 25  1  0  0  0  0
 27 28  1  0  0  0  0
 27 23  1  0  0  0  0
 28 29  1  0  0  0  0
 30 31  1  0  0  0  0
 30 29  1  0  0  0  0
 31 32  1  0  0  0  0
 32 34  1  0  0  0  0
 34 33  1  0  0  0  0
M  END
>  <MODEL>
1

>  <REMARK>
 VINA RESULT:    -6.279      0.000      0.000
 INTER + INTRA:         -15.491
 INTER:                 -13.733
 INTRA:                  -1.758
 UNBOUND:                -2.421
  Name = CHEMBL176740
  22 active torsions:
  status: ('A' for Active; 'I' for Inactive)
    1  A    between atoms: C_1  and  C_2
    2  A    between atoms: C_2  and  C_3
    3  A    between atoms: C_3  and  C_4
    4  A    between atoms: C_4  and  C_5
    5  A    between atoms: C_5  and  C_6
    6  A    between atoms: C_6  and  C_7
    7  A    between atoms: C_7  and  C_8
    8  A    between atoms: C_8  and  C_9
    9  A    between atoms: N_11  and  C_12
   10  A    between atoms: C_12  and  C_13
   11  A    between atoms: C_16  and  O_17
   12  A    between atoms: O_17  and  C_18
   13  A    between atoms: C_18  and  C_19
   14  A    between atoms: C_19  and  O_20
   15  A    between atoms: C_19  and  C_21
   16  A    between atoms: C_21  and  N_22
   17  A    between atoms: N_22  and  C_23
   18  A    between atoms: C_23  and  C_24
   19  A    between atoms: C_24  and  C_25
   20  A    between atoms: C_25  and  C_26
   21  A    between atoms: C_27  and  O_28
   22  A    between atoms: O_28  and  C_29
                            x       y       z     vdW  Elec       q    Type
                         _______ _______ _______ _____ _____    ______ ____

>  <TORSDO>
F 19

>  <SCORE>
-6.279

>  <RMSD_LB>
0.000

>  <RMSD_UB>
0.000

$$$$
CHEMBL176740
 OpenBabel10172500283D

 34 34  0  0  1  0  0  0  0  0999 V2000
  136.6940  136.6360  155.2350 C   0  0  0  0  0  0  0  0  0  0  0  0
  137.3920  137.0290  154.0910 C   0  0  0  0  0  3  0  0  0  0  0  0
  138.5580  137.7910  154.1960 C   0  0  0  0  0  3  0  0  0  0  0  0
  139.0550  138.1780  155.4480 C   0  0  0  0  0  0  0  0  0  0  0  0
  138.3640  137.7850  156.6080 C   0  0  0  0  0  0  0  0  0  0  0  0
  137.2140  136.9870  156.4930 C   0  0  0  0  0  3  0  0  0  0  0  0
  138.7170  138.0650  157.9070 O   0  0  0  0  0  0  0  0  0  0  0  0
  137.7110  137.8850  158.9000 C   0  0  0  0  0  1  0  0  0  0  0  0
  140.1960  138.9150  155.5980 O   0  0  0  0  0  0  0  0  0  0  0  0
  141.3130  138.6140  154.7560 C   0  0  0  0  0  2  0  0  0  0  0  0
  142.4500  139.5760  155.1230 C   0  0  1  0  0  3  0  0  0  0  0  0
  142.8040  139.4130  156.5030 O   0  0  0  0  0  0  0  0  0  0  0  0
  143.0910  138.5000  156.6580 H   0  0  0  0  0  0  0  0  0  0  0  0
  143.6940  139.3320  154.2490 C   0  0  0  0  0  2  0  0  0  0  0  0
  144.7850  140.2260  154.6450 N   0  0  0  0  0  4  0  0  0  0  0  0
  145.2870  139.8130  155.4290 H   0  0  0  0  0  0  0  0  0  0  0  0
  144.3900  141.1270  154.9130 H   0  0  0  0  0  0  0  0  0  0  0  0
  145.7100  140.4310  153.5390 C   0  0  0  0  0  2  0  0  0  0  0  0
  146.1810  141.8810  153.5470 C   0  0  0  0  0  2  0  0  0  0  0  0
  147.2460  142.0970  152.4760 C   0  0  0  0  0  2  0  0  0  0  0  0
  146.6210  142.4910  151.1500 C   0  0  0  0  0  1  0  0  0  0  0  0
  135.4000  135.8760  155.1040 C   0  0  0  0  0  2  0  0  0  0  0  0
  134.5360  134.3260  153.4190 C   0  0  0  0  0  0  0  0  0  0  0  0
  134.2340  133.4750  154.2470 O   0  0  0  0  0  0  0  0  0  0  0  0
  135.0920  135.5420  153.7380 N   0  0  0  0  0  0  0  0  0  0  0  0
  135.2820  136.1930  153.0230 H   0  0  0  0  0  0  0  0  0  0  0  0
  134.3270  134.1160  151.9280 C   0  0  0  0  0  2  0  0  0  0  0  0
  132.9530  134.6200  151.5000 C   0  0  0  0  0  2  0  0  0  0  0  0
  133.0110  135.9950  150.8370 C   0  0  0  0  0  2  0  0  0  0  0  0
  133.9560  135.9520  149.6350 C   0  0  0  0  0  2  0  0  0  0  0  0
  133.1910  135.9650  148.3140 C   0  0  0  0  0  2  0  0  0  0  0  0
  133.6620  134.8310  147.4040 C   0  0  0  0  0  2  0  0  0  0  0  0
  133.9260  132.6010  148.5320 C   0  0  0  0  0  1  0  0  0  0  0  0
  132.9830  133.5140  147.7680 C   0  0  0  0  0  2  0  0  0  0  0  0
  1  6  1  0  0  0  0
  2  3  1  0  0  0  0
  2  1  2  0  0  0  0
  3  4  2  0  0  0  0
  4  9  1  0  0  0  0
  4  5  1  0  0  0  0
  5  7  1  0  0  0  0
  6  5  2  0  0  0  0
  7  8  1  0  0  0  0
 10 11  1  0  0  0  0
 10  9  1  0  0  0  0
 11 14  1  6  0  0  0
 11 12  1  0  0  0  0
 12 13  1  0  0  0  0
 14 15  1  0  0  0  0
 15 17  1  0  0  0  0
 15 16  1  0  0  0  0
 18 19  1  0  0  0  0
 18 15  1  0  0  0  0
 20 19  1  0  0  0  0
 21 20  1  0  0  0  0
 22  1  1  0  0  0  0
 23 25  1  0  0  0  0
 23 24  2  0  0  0  0
 25 22  1  0  0  0  0
 26 25  1  0  0  0  0
 27 23  1  0  0  0  0
 28 27  1  0  0  0  0
 29 28  1  0  0  0  0
 30 29  1  0  0  0  0
 31 30  1  0  0  0  0
 32 34  1  0  0  0  0
 32 31  1  0  0  0  0
 34 33  1  0  0  0  0
M  END
>  <MODEL>
2

>  <REMARK>
 VINA RESULT:    -6.233      2.868     10.969
 INTER + INTRA:         -15.395
 INTER:                 -14.166
 INTRA:                  -1.228
 UNBOUND:                -2.421
  Name = CHEMBL176740
  22 active torsions:
  status: ('A' for Active; 'I' for Inactive)
    1  A    between atoms: C_1  and  C_2
    2  A    between atoms: C_2  and  C_3
    3  A    between atoms: C_3  and  C_4
    4  A    between atoms: C_4  and  C_5
    5  A    between atoms: C_5  and  C_6
    6  A    between atoms: C_6  and  C_7
    7  A    between atoms: C_7  and  C_8
    8  A    between atoms: C_8  and  C_9
    9  A    between atoms: N_11  and  C_12
   10  A    between atoms: C_12  and  C_13
   11  A    between atoms: C_16  and  O_17
   12  A    between atoms: O_17  and  C_18
   13  A    between atoms: C_18  and  C_19
   14  A    between atoms: C_19  and  O_20
   15  A    between atoms: C_19  and  C_21
   16  A    between atoms: C_21  and  N_22
   17  A    between atoms: N_22  and  C_23
   18  A    between atoms: C_23  and  C_24
   19  A    between atoms: C_24  and  C_25
   20  A    between atoms: C_25  and  C_26
   21  A    between atoms: C_27  and  O_28
   22  A    between atoms: O_28  and  C_29
                            x       y       z     vdW  Elec       q    Type
                         _______ _______ _______ _____ _____    ______ ____

>  <TORSDO>
F 19

>  <SCORE>
-6.233

>  <RMSD_LB>
2.868

>  <RMSD_UB>
10.969

$$$$
CHEMBL176740
 OpenBabel10172500283D

 34 34  0  0  1  0  0  0  0  0999 V2000
  133.1800  134.5040  147.9300 C   0  0  0  0  0  0  0  0  0  0  0  0
  132.8400  135.8560  148.0270 C   0  0  0  0  0  3  0  0  0  0  0  0
  133.2280  136.7600  147.0370 C   0  0  0  0  0  3  0  0  0  0  0  0
  133.9680  136.3350  145.9240 C   0  0  0  0  0  0  0  0  0  0  0  0
  134.3140  134.9770  145.8130 C   0  0  0  0  0  0  0  0  0  0  0  0
  133.8850  134.0690  146.7950 C   0  0  0  0  0  3  0  0  0  0  0  0
  135.0200  134.3920  144.7890 O   0  0  0  0  0  0  0  0  0  0  0  0
  134.9790  132.9710  144.7070 C   0  0  0  0  0  1  0  0  0  0  0  0
  134.3610  137.1830  144.9280 O   0  0  0  0  0  0  0  0  0  0  0  0
  133.3580  137.9480  144.2520 C   0  0  0  0  0  2  0  0  0  0  0  0
  133.7850  139.4210  144.2920 C   0  0  1  0  0  3  0  0  0  0  0  0
  133.0580  140.1140  145.3150 O   0  0  0  0  0  0  0  0  0  0  0  0
  132.5270  140.8190  144.9130 H   0  0  0  0  0  0  0  0  0  0  0  0
  135.2940  139.5600  144.5600 C   0  0  0  0  0  2  0  0  0  0  0  0
  135.5700  139.4960  145.9970 N   0  0  0  0  0  4  0  0  0  0  0  0
  135.2490  138.6000  146.3600 H   0  0  0  0  0  0  0  0  0  0  0  0
  135.0800  140.2620  146.4590 H   0  0  0  0  0  0  0  0  0  0  0  0
  136.9970  139.6320  146.2540 C   0  0  0  0  0  2  0  0  0  0  0  0
  137.2900  139.1880  147.6830 C   0  0  0  0  0  2  0  0  0  0  0  0
  137.3940  140.4010  148.6030 C   0  0  0  0  0  2  0  0  0  0  0  0
  138.4790  140.2090  149.6460 C   0  0  0  0  0  1  0  0  0  0  0  0
  132.8160  133.5540  149.0410 C   0  0  0  0  0  2  0  0  0  0  0  0
  133.7130  134.1540  151.2380 C   0  0  0  0  0  0  0  0  0  0  0  0
  132.7390  134.8370  151.5330 O   0  0  0  0  0  0  0  0  0  0  0  0
  133.8380  133.4690  150.0520 N   0  0  0  0  0  0  0  0  0  0  0  0
  134.6360  132.9140  149.8920 H   0  0  0  0  0  0  0  0  0  0  0  0
  134.9050  133.9980  152.1680 C   0  0  0  0  0  2  0  0  0  0  0  0
  136.1530  134.6240  151.5540 C   0  0  0  0  0  2  0  0  0  0  0  0
  136.1190  136.1510  151.5830 C   0  0  0  0  0  2  0  0  0  0  0  0
  136.7060  136.7080  150.2850 C   0  0  0  0  0  2  0  0  0  0  0  0
  136.5390  135.7310  149.1240 C   0  0  0  0  0  2  0  0  0  0  0  0
  137.8200  135.6520  148.2940 C   0  0  0  0  0  2  0  0  0  0  0  0
  137.7000  133.3870  147.2110 C   0  0  0  0  0  1  0  0  0  0  0  0
  138.3790  134.2320  148.2750 C   0  0  0  0  0  2  0  0  0  0  0  0
  1  2  1  0  0  0  0
  1 22  1  0  0  0  0
  3  2  2  0  0  0  0
  4  3  1  0  0  0  0
  5  4  2  0  0  0  0
  5  6  1  0  0  0  0
  6  1  2  0  0  0  0
  7  5  1  0  0  0  0
  8  7  1  0  0  0  0
  9  4  1  0  0  0  0
 10  9  1  0  0  0  0
 11 10  1  1  0  0  0
 11 14  1  0  0  0  0
 11 12  1  0  0  0  0
 13 12  1  0  0  0  0
 14 15  1  0  0  0  0
 15 18  1  0  0  0  0
 15 16  1  0  0  0  0
 15 17  1  0  0  0  0
 18 19  1  0  0  0  0
 19 20  1  0  0  0  0
 20 21  1  0  0  0  0
 22 25  1  0  0  0  0
 23 24  2  0  0  0  0
 23 27  1  0  0  0  0
 25 23  1  0  0  0  0
 26 25  1  0  0  0  0
 28 29  1  0  0  0  0
 28 27  1  0  0  0  0
 30 29  1  0  0  0  0
 31 30  1  0  0  0  0
 32 31  1  0  0  0  0
 33 34  1  0  0  0  0
 34 32  1  0  0  0  0
M  END
>  <MODEL>
3

>  <REMARK>
 VINA RESULT:    -6.091      7.054     11.332
 INTER + INTRA:         -15.100
 INTER:                 -11.846
 INTRA:                  -3.254
 UNBOUND:                -2.421
  Name = CHEMBL176740
  22 active torsions:
  status: ('A' for Active; 'I' for Inactive)
    1  A    between atoms: C_1  and  C_2
    2  A    between atoms: C_2  and  C_3
    3  A    between atoms: C_3  and  C_4
    4  A    between atoms: C_4  and  C_5
    5  A    between atoms: C_5  and  C_6
    6  A    between atoms: C_6  and  C_7
    7  A    between atoms: C_7  and  C_8
    8  A    between atoms: C_8  and  C_9
    9  A    between atoms: N_11  and  C_12
   10  A    between atoms: C_12  and  C_13
   11  A    between atoms: C_16  and  O_17
   12  A    between atoms: O_17  and  C_18
   13  A    between atoms: C_18  and  C_19
   14  A    between atoms: C_19  and  O_20
   15  A    between atoms: C_19  and  C_21
   16  A    between atoms: C_21  and  N_22
   17  A    between atoms: N_22  and  C_23
   18  A    between atoms: C_23  and  C_24
   19  A    between atoms: C_24  and  C_25
   20  A    between atoms: C_25  and  C_26
   21  A    between atoms: C_27  and  O_28
   22  A    between atoms: O_28  and  C_29
                            x       y       z     vdW  Elec       q    Type
                         _______ _______ _______ _____ _____    ______ ____

>  <TORSDO>
F 19

>  <SCORE>
-6.091

>  <RMSD_LB>
7.054

>  <RMSD_UB>
11.332

$$$$
CHEMBL176740
 OpenBabel10172500283D

 34 34  0  0  1  0  0  0  0  0999 V2000
  136.6780  136.5320  154.1200 C   0  0  0  0  0  0  0  0  0  0  0  0
  136.6100  136.4240  152.7280 C   0  0  0  0  0  3  0  0  0  0  0  0
  135.7530  135.5000  152.1280 C   0  0  0  0  0  3  0  0  0  0  0  0
  134.9400  134.6610  152.9030 C   0  0  0  0  0  0  0  0  0  0  0  0
  134.9960  134.7630  154.3040 C   0  0  0  0  0  0  0  0  0  0  0  0
  135.8340  135.7220  154.8970 C   0  0  0  0  0  3  0  0  0  0  0  0
  134.2640  134.0310  155.2090 O   0  0  0  0  0  0  0  0  0  0  0  0
  134.3080  134.4560  156.5680 C   0  0  0  0  0  1  0  0  0  0  0  0
  134.0810  133.7500  152.3580 O   0  0  0  0  0  0  0  0  0  0  0  0
  134.1680  133.4900  150.9530 C   0  0  0  0  0  2  0  0  0  0  0  0
  132.8040  133.8140  150.3300 C   0  0  1  0  0  3  0  0  0  0  0  0
  131.9760  134.4890  151.2860 O   0  0  0  0  0  0  0  0  0  0  0  0
  131.4630  135.1800  150.8390 H   0  0  0  0  0  0  0  0  0  0  0  0
  132.9560  134.6960  149.0780 C   0  0  0  0  0  2  0  0  0  0  0  0
  133.4070  136.0400  149.4460 N   0  0  0  0  0  4  0  0  0  0  0  0
  134.3970  136.1330  149.2230 H   0  0  0  0  0  0  0  0  0  0  0  0
  133.2540  136.1740  150.4450 H   0  0  0  0  0  0  0  0  0  0  0  0
  132.6550  137.0520  148.7180 C   0  0  0  0  0  2  0  0  0  0  0  0
  132.5000  136.6100  147.2670 C   0  0  0  0  0  2  0  0  0  0  0  0
  133.1150  137.6450  146.3300 C   0  0  0  0  0  2  0  0  0  0  0  0
  132.7460  137.3660  144.8840 C   0  0  0  0  0  1  0  0  0  0  0  0
  137.6590  137.4820  154.7550 C   0  0  0  0  0  2  0  0  0  0  0  0
  139.9210  138.3470  154.4010 C   0  0  0  0  0  0  0  0  0  0  0  0
  140.0900  138.6040  155.5870 O   0  0  0  0  0  0  0  0  0  0  0  0
  138.7760  137.7770  153.8960 N   0  0  0  0  0  0  0  0  0  0  0  0
  138.7200  137.5690  152.9340 H   0  0  0  0  0  0  0  0  0  0  0  0
  140.9790  138.6420  153.3490 C   0  0  0  0  0  2  0  0  0  0  0  0
  140.9810  137.5650  152.2700 C   0  0  0  0  0  2  0  0  0  0  0  0
  140.7150  138.1290  150.8760 C   0  0  0  0  0  2  0  0  0  0  0  0
  139.5750  137.3550  150.2120 C   0  0  0  0  0  2  0  0  0  0  0  0
  138.2690  138.1430  150.2320 C   0  0  0  0  0  2  0  0  0  0  0  0
  138.5170  139.6130  149.8940 C   0  0  0  0  0  2  0  0  0  0  0  0
  136.8620  138.9050  148.1400 C   0  0  0  0  0  1  0  0  0  0  0  0
  137.7610  140.0250  148.6340 C   0  0  0  0  0  2  0  0  0  0  0  0
  1 22  1  0  0  0  0
  1  6  1  0  0  0  0
  2  1  2  0  0  0  0
  3  2  1  0  0  0  0
  3  4  2  0  0  0  0
  4  5  1  0  0  0  0
  5  6  2  0  0  0  0
  5  7  1  0  0  0  0
  7  8  1  0  0  0  0
  9  4  1  0  0  0  0
 10  9  1  0  0  0  0
 11 14  1  6  0  0  0
 11 10  1  0  0  0  0
 11 12  1  0  0  0  0
 13 12  1  0  0  0  0
 14 15  1  0  0  0  0
 15 17  1  0  0  0  0
 16 15  1  0  0  0  0
 18 15  1  0  0  0  0
 19 18  1  0  0  0  0
 20 19  1  0  0  0  0
 21 20  1  0  0  0  0
 23 24  2  0  0  0  0
 25 23  1  0  0  0  0
 25 22  1  0  0  0  0
 26 25  1  0  0  0  0
 27 23  1  0  0  0  0
 28 27  1  0  0  0  0
 29 28  1  0  0  0  0
 30 31  1  0  0  0  0
 30 29  1  0  0  0  0
 32 31  1  0  0  0  0
 33 34  1  0  0  0  0
 34 32  1  0  0  0  0
M  END
>  <MODEL>
4

>  <REMARK>
 VINA RESULT:    -6.074      4.490      7.896
 INTER + INTRA:         -15.065
 INTER:                 -13.116
 INTRA:                  -1.949
 UNBOUND:                -2.421
  Name = CHEMBL176740
  22 active torsions:
  status: ('A' for Active; 'I' for Inactive)
    1  A    between atoms: C_1  and  C_2
    2  A    between atoms: C_2  and  C_3
    3  A    between atoms: C_3  and  C_4
    4  A    between atoms: C_4  and  C_5
    5  A    between atoms: C_5  and  C_6
    6  A    between atoms: C_6  and  C_7
    7  A    between atoms: C_7  and  C_8
    8  A    between atoms: C_8  and  C_9
    9  A    between atoms: N_11  and  C_12
   10  A    between atoms: C_12  and  C_13
   11  A    between atoms: C_16  and  O_17
   12  A    between atoms: O_17  and  C_18
   13  A    between atoms: C_18  and  C_19
   14  A    between atoms: C_19  and  O_20
   15  A    between atoms: C_19  and  C_21
   16  A    between atoms: C_21  and  N_22
   17  A    between atoms: N_22  and  C_23
   18  A    between atoms: C_23  and  C_24
   19  A    between atoms: C_24  and  C_25
   20  A    between atoms: C_25  and  C_26
   21  A    between atoms: C_27  and  O_28
   22  A    between atoms: O_28  and  C_29
                            x       y       z     vdW  Elec       q    Type
                         _______ _______ _______ _____ _____    ______ ____

>  <TORSDO>
F 19

>  <SCORE>
-6.074

>  <RMSD_LB>
4.490

>  <RMSD_UB>
7.896

$$$$
CHEMBL176740
 OpenBabel10172500283D

 34 34  0  0  1  0  0  0  0  0999 V2000
  139.9480  138.2360  154.9510 C   0  0  0  0  0  0  0  0  0  0  0  0
  139.4590  138.1370  153.6470 C   0  0  0  0  0  3  0  0  0  0  0  0
  138.1640  137.6750  153.4060 C   0  0  0  0  0  3  0  0  0  0  0  0
  137.3250  137.2990  154.4640 C   0  0  0  0  0  0  0  0  0  0  0  0
  137.8040  137.3980  155.7820 C   0  0  0  0  0  0  0  0  0  0  0  0
  139.0950  137.9000  156.0150 C   0  0  0  0  0  3  0  0  0  0  0  0
  137.1150  137.0850  156.9310 O   0  0  0  0  0  0  0  0  0  0  0  0
  137.2610  135.7580  157.4290 C   0  0  0  0  0  1  0  0  0  0  0  0
  136.0480  136.8500  154.2760 O   0  0  0  0  0  0  0  0  0  0  0  0
  135.8590  135.4880  153.8820 C   0  0  0  0  0  2  0  0  0  0  0  0
  134.3600  135.1770  153.9660 C   0  0  1  0  0  3  0  0  0  0  0  0
  133.6490  136.3230  154.4550 O   0  0  0  0  0  0  0  0  0  0  0  0
  132.7420  136.0680  154.6810 H   0  0  0  0  0  0  0  0  0  0  0  0
  133.7920  134.7770  152.5930 C   0  0  0  0  0  2  0  0  0  0  0  0
  133.8350  135.9110  151.6670 N   0  0  0  0  0  4  0  0  0  0  0  0
  134.7650  136.3270  151.6900 H   0  0  0  0  0  0  0  0  0  0  0  0
  133.1340  136.5940  151.9530 H   0  0  0  0  0  0  0  0  0  0  0  0
  133.5380  135.4780  150.3090 C   0  0  0  0  0  2  0  0  0  0  0  0
  132.5540  134.3150  150.3610 C   0  0  0  0  0  2  0  0  0  0  0  0
  132.6420  133.4890  149.0800 C   0  0  0  0  0  2  0  0  0  0  0  0
  134.0520  132.9750  148.8530 C   0  0  0  0  0  1  0  0  0  0  0  0
  141.3710  138.6680  155.1910 C   0  0  0  0  0  2  0  0  0  0  0  0
  143.0030  138.7080  153.3680 C   0  0  0  0  0  0  0  0  0  0  0  0
  143.4760  137.6180  153.6660 O   0  0  0  0  0  0  0  0  0  0  0  0
  141.9580  139.2990  154.0380 N   0  0  0  0  0  0  0  0  0  0  0  0
  141.6070  140.1650  153.7250 H   0  0  0  0  0  0  0  0  0  0  0  0
  143.5390  139.5340  152.2100 C   0  0  0  0  0  2  0  0  0  0  0  0
  144.9390  140.0520  152.5190 C   0  0  0  0  0  2  0  0  0  0  0  0
  145.2750  141.3320  151.7560 C   0  0  0  0  0  2  0  0  0  0  0  0
  146.0220  142.3020  152.6720 C   0  0  0  0  0  2  0  0  0  0  0  0
  147.5160  141.9960  152.7210 C   0  0  0  0  0  2  0  0  0  0  0  0
  147.9910  141.8400  154.1660 C   0  0  0  0  0  2  0  0  0  0  0  0
  148.6300  139.6240  153.1680 C   0  0  0  0  0  1  0  0  0  0  0  0
  148.4200  140.4040  154.4540 C   0  0  0  0  0  2  0  0  0  0  0  0
  1 22  1  0  0  0  0
  1  6  1  0  0  0  0
  2  1  2  0  0  0  0
  3  2  1  0  0  0  0
  3  4  2  0  0  0  0
  4  5  1  0  0  0  0
  5  6  2  0  0  0  0
  5  7  1  0  0  0  0
  7  8  1  0  0  0  0
  9  4  1  0  0  0  0
 10 11  1  0  0  0  0
 10  9  1  0  0  0  0
 11 14  1  6  0  0  0
 11 12  1  0  0  0  0
 12 13  1  0  0  0  0
 15 16  1  0  0  0  0
 15 17  1  0  0  0  0
 15 14  1  0  0  0  0
 18 19  1  0  0  0  0
 18 15  1  0  0  0  0
 20 19  1  0  0  0  0
 21 20  1  0  0  0  0
 23 24  2  0  0  0  0
 23 25  1  0  0  0  0
 25 22  1  0  0  0  0
 26 25  1  0  0  0  0
 27 28  1  0  0  0  0
 27 23  1  0  0  0  0
 29 28  1  0  0  0  0
 29 30  1  0  0  0  0
 30 31  1  0  0  0  0
 31 32  1  0  0  0  0
 32 34  1  0  0  0  0
 33 34  1  0  0  0  0
M  END
>  <MODEL>
5

>  <REMARK>
 VINA RESULT:    -6.066      2.406      3.913
 INTER + INTRA:         -15.048
 INTER:                 -13.697
 INTRA:                  -1.350
 UNBOUND:                -2.421
  Name = CHEMBL176740
  22 active torsions:
  status: ('A' for Active; 'I' for Inactive)
    1  A    between atoms: C_1  and  C_2
    2  A    between atoms: C_2  and  C_3
    3  A    between atoms: C_3  and  C_4
    4  A    between atoms: C_4  and  C_5
    5  A    between atoms: C_5  and  C_6
    6  A    between atoms: C_6  and  C_7
    7  A    between atoms: C_7  and  C_8
    8  A    between atoms: C_8  and  C_9
    9  A    between atoms: N_11  and  C_12
   10  A    between atoms: C_12  and  C_13
   11  A    between atoms: C_16  and  O_17
   12  A    between atoms: O_17  and  C_18
   13  A    between atoms: C_18  and  C_19
   14  A    between atoms: C_19  and  O_20
   15  A    between atoms: C_19  and  C_21
   16  A    between atoms: C_21  and  N_22
   17  A    between atoms: N_22  and  C_23
   18  A    between atoms: C_23  and  C_24
   19  A    between atoms: C_24  and  C_25
   20  A    between atoms: C_25  and  C_26
   21  A    between atoms: C_27  and  O_28
   22  A    between atoms: O_28  and  C_29
                            x       y       z     vdW  Elec       q    Type
                         _______ _______ _______ _____ _____    ______ ____

>  <TORSDO>
F 19

>  <SCORE>
-6.066

>  <RMSD_LB>
2.406

>  <RMSD_UB>
3.913

$$$$
CHEMBL176740
 OpenBabel10172500283D

 34 34  0  0  1  0  0  0  0  0999 V2000
  139.9460  137.0450  150.0400 C   0  0  0  0  0  0  0  0  0  0  0  0
  139.7180  137.5810  151.3090 C   0  0  0  0  0  3  0  0  0  0  0  0
  140.7670  137.7280  152.2180 C   0  0  0  0  0  3  0  0  0  0  0  0
  142.0720  137.3430  151.8800 C   0  0  0  0  0  0  0  0  0  0  0  0
  142.3150  136.8060  150.6040 C   0  0  0  0  0  0  0  0  0  0  0  0
  141.2600  136.6980  149.6840 C   0  0  0  0  0  3  0  0  0  0  0  0
  143.5290  136.3910  150.1070 O   0  0  0  0  0  0  0  0  0  0  0  0
  143.6680  136.3620  148.6890 C   0  0  0  0  0  1  0  0  0  0  0  0
  143.1300  137.4770  152.7340 O   0  0  0  0  0  0  0  0  0  0  0  0
  142.8650  137.8470  154.0910 C   0  0  0  0  0  2  0  0  0  0  0  0
  143.2630  139.3180  154.2640 C   0  0  1  0  0  3  0  0  0  0  0  0
  142.3110  139.9890  155.0990 O   0  0  0  0  0  0  0  0  0  0  0  0
  141.9320  139.3570  155.7290 H   0  0  0  0  0  0  0  0  0  0  0  0
  144.6650  139.4490  154.8860 C   0  0  0  0  0  2  0  0  0  0  0  0
  145.2910  140.7110  154.4850 N   0  0  0  0  0  4  0  0  0  0  0  0
  146.1610  140.8320  155.0010 H   0  0  0  0  0  0  0  0  0  0  0  0
  144.6480  141.4750  154.6890 H   0  0  0  0  0  0  0  0  0  0  0  0
  145.5790  140.7110  153.0570 C   0  0  0  0  0  2  0  0  0  0  0  0
  146.5890  141.8130  152.7530 C   0  0  0  0  0  2  0  0  0  0  0  0
  147.5130  141.3850  151.6180 C   0  0  0  0  0  2  0  0  0  0  0  0
  148.8570  142.0840  151.7090 C   0  0  0  0  0  1  0  0  0  0  0  0
  138.7920  136.8260  149.0960 C   0  0  0  0  0  2  0  0  0  0  0  0
  136.7940  135.7650  150.0310 C   0  0  0  0  0  0  0  0  0  0  0  0
  136.2570  136.8340  150.2930 O   0  0  0  0  0  0  0  0  0  0  0  0
  138.0250  135.6530  149.4260 N   0  0  0  0  0  0  0  0  0  0  0  0
  138.3850  134.7600  149.2170 H   0  0  0  0  0  0  0  0  0  0  0  0
  136.1460  134.4290  150.3590 C   0  0  0  0  0  2  0  0  0  0  0  0
  135.7930  134.3510  151.8400 C   0  0  0  0  0  2  0  0  0  0  0  0
  134.3150  134.0490  152.0780 C   0  0  0  0  0  2  0  0  0  0  0  0
  133.7570  133.2340  150.9100 C   0  0  0  0  0  2  0  0  0  0  0  0
  132.5810  133.9370  150.2400 C   0  0  0  0  0  2  0  0  0  0  0  0
  132.8420  134.1250  148.7450 C   0  0  0  0  0  2  0  0  0  0  0  0
  132.8240  136.4860  149.6060 C   0  0  0  0  0  1  0  0  0  0  0  0
  133.0960  135.5910  148.4090 C   0  0  0  0  0  2  0  0  0  0  0  0
  1  2  1  0  0  0  0
  2  3  2  0  0  0  0
  4  3  1  0  0  0  0
  4  9  1  0  0  0  0
  5  4  2  0  0  0  0
  6  1  2  0  0  0  0
  6  5  1  0  0  0  0
  7  5  1  0  0  0  0
  8  7  1  0  0  0  0
  9 10  1  0  0  0  0
 11 10  1  1  0  0  0
 11 14  1  0  0  0  0
 11 12  1  0  0  0  0
 12 13  1  0  0  0  0
 15 17  1  0  0  0  0
 15 14  1  0  0  0  0
 15 16  1  0  0  0  0
 18 15  1  0  0  0  0
 19 18  1  0  0  0  0
 20 21  1  0  0  0  0
 20 19  1  0  0  0  0
 22 25  1  0  0  0  0
 22  1  1  0  0  0  0
 23 24  2  0  0  0  0
 23 27  1  0  0  0  0
 25 23  1  0  0  0  0
 26 25  1  0  0  0  0
 27 28  1  0  0  0  0
 28 29  1  0  0  0  0
 30 29  1  0  0  0  0
 31 30  1  0  0  0  0
 32 31  1  0  0  0  0
 34 32  1  0  0  0  0
 34 33  1  0  0  0  0
M  END
>  <MODEL>
6

>  <REMARK>
 VINA RESULT:    -6.021      2.951     10.555
 INTER + INTRA:         -14.954
 INTER:                 -13.363
 INTRA:                  -1.591
 UNBOUND:                -2.421
  Name = CHEMBL176740
  22 active torsions:
  status: ('A' for Active; 'I' for Inactive)
    1  A    between atoms: C_1  and  C_2
    2  A    between atoms: C_2  and  C_3
    3  A    between atoms: C_3  and  C_4
    4  A    between atoms: C_4  and  C_5
    5  A    between atoms: C_5  and  C_6
    6  A    between atoms: C_6  and  C_7
    7  A    between atoms: C_7  and  C_8
    8  A    between atoms: C_8  and  C_9
    9  A    between atoms: N_11  and  C_12
   10  A    between atoms: C_12  and  C_13
   11  A    between atoms: C_16  and  O_17
   12  A    between atoms: O_17  and  C_18
   13  A    between atoms: C_18  and  C_19
   14  A    between atoms: C_19  and  O_20
   15  A    between atoms: C_19  and  C_21
   16  A    between atoms: C_21  and  N_22
   17  A    between atoms: N_22  and  C_23
   18  A    between atoms: C_23  and  C_24
   19  A    between atoms: C_24  and  C_25
   20  A    between atoms: C_25  and  C_26
   21  A    between atoms: C_27  and  O_28
   22  A    between atoms: O_28  and  C_29
                            x       y       z     vdW  Elec       q    Type
                         _______ _______ _______ _____ _____    ______ ____

>  <TORSDO>
F 19

>  <SCORE>
-6.021

>  <RMSD_LB>
2.951

>  <RMSD_UB>
10.555

$$$$
CHEMBL176740
 OpenBabel10172500283D

 34 34  0  0  1  0  0  0  0  0999 V2000
  140.5610  138.4000  153.4670 C   0  0  0  0  0  0  0  0  0  0  0  0
  140.5530  137.7430  152.2350 C   0  0  0  0  0  3  0  0  0  0  0  0
  141.7500  137.3990  151.6040 C   0  0  0  0  0  3  0  0  0  0  0  0
  142.9860  137.7050  152.1900 C   0  0  0  0  0  0  0  0  0  0  0  0
  143.0080  138.3630  153.4320 C   0  0  0  0  0  0  0  0  0  0  0  0
  141.7980  138.6700  154.0760 C   0  0  0  0  0  3  0  0  0  0  0  0
  144.1250  138.7250  154.1490 O   0  0  0  0  0  0  0  0  0  0  0  0
  143.9380  139.6670  155.2010 C   0  0  0  0  0  1  0  0  0  0  0  0
  144.1810  137.3800  151.6130 O   0  0  0  0  0  0  0  0  0  0  0  0
  144.5460  138.0320  150.3920 C   0  0  0  0  0  2  0  0  0  0  0  0
  145.6530  139.0440  150.7120 C   0  0  1  0  0  3  0  0  0  0  0  0
  145.1160  140.1350  151.4700 O   0  0  0  0  0  0  0  0  0  0  0  0
  144.1480  140.1110  151.4300 H   0  0  0  0  0  0  0  0  0  0  0  0
  146.7980  138.3890  151.5050 C   0  0  0  0  0  2  0  0  0  0  0  0
  146.7130  138.7480  152.9230 N   0  0  0  0  0  4  0  0  0  0  0  0
  146.6420  137.8980  153.4800 H   0  0  0  0  0  0  0  0  0  0  0  0
  145.8910  139.3350  153.0630 H   0  0  0  0  0  0  0  0  0  0  0  0
  147.8940  139.4930  153.3360 C   0  0  0  0  0  2  0  0  0  0  0  0
  147.4570  140.7180  154.1320 C   0  0  0  0  0  2  0  0  0  0  0  0
  147.5430  141.9710  153.2660 C   0  0  0  0  0  2  0  0  0  0  0  0
  148.5340  141.7880  152.1310 C   0  0  0  0  0  1  0  0  0  0  0  0
  139.2640  138.8280  154.1020 C   0  0  0  0  0  2  0  0  0  0  0  0
  137.4120  137.9320  155.4280 C   0  0  0  0  0  0  0  0  0  0  0  0
  136.9530  139.0410  155.6750 O   0  0  0  0  0  0  0  0  0  0  0  0
  138.5260  137.7200  154.6510 N   0  0  0  0  0  0  0  0  0  0  0  0
  138.8230  136.7980  154.4670 H   0  0  0  0  0  0  0  0  0  0  0  0
  136.7870  136.6570  155.9710 C   0  0  0  0  0  2  0  0  0  0  0  0
  136.3500  135.7430  154.8320 C   0  0  0  0  0  2  0  0  0  0  0  0
  134.8580  135.8560  154.5270 C   0  0  0  0  0  2  0  0  0  0  0  0
  134.6050  135.5500  153.0490 C   0  0  0  0  0  2  0  0  0  0  0  0
  135.1820  134.1970  152.6460 C   0  0  0  0  0  2  0  0  0  0  0  0
  135.1930  134.0440  151.1250 C   0  0  0  0  0  2  0  0  0  0  0  0
  132.8720  133.6610  150.2390 C   0  0  0  0  0  1  0  0  0  0  0  0
  133.9610  134.6890  150.4970 C   0  0  0  0  0  2  0  0  0  0  0  0
  1  6  1  0  0  0  0
  1 22  1  0  0  0  0
  2  1  2  0  0  0  0
  3  4  2  0  0  0  0
  3  2  1  0  0  0  0
  4  5  1  0  0  0  0
  5  6  2  0  0  0  0
  5  7  1  0  0  0  0
  7  8  1  0  0  0  0
  9  4  1  0  0  0  0
 10  9  1  0  0  0  0
 11 10  1  1  0  0  0
 11 12  1  0  0  0  0
 11 14  1  0  0  0  0
 13 12  1  0  0  0  0
 14 15  1  0  0  0  0
 15 17  1  0  0  0  0
 15 18  1  0  0  0  0
 15 16  1  0  0  0  0
 18 19  1  0  0  0  0
 20 19  1  0  0  0  0
 21 20  1  0  0  0  0
 22 25  1  0  0  0  0
 23 24  2  0  0  0  0
 23 27  1  0  0  0  0
 25 23  1  0  0  0  0
 26 25  1  0  0  0  0
 28 27  1  0  0  0  0
 29 28  1  0  0  0  0
 30 29  1  0  0  0  0
 31 30  1  0  0  0  0
 32 31  1  0  0  0  0
 33 34  1  0  0  0  0
 34 32  1  0  0  0  0
M  END
>  <MODEL>
7

>  <REMARK>
 VINA RESULT:    -6.017      1.817     10.680
 INTER + INTRA:         -14.946
 INTER:                 -12.853
 INTRA:                  -2.093
 UNBOUND:                -2.421
  Name = CHEMBL176740
  22 active torsions:
  status: ('A' for Active; 'I' for Inactive)
    1  A    between atoms: C_1  and  C_2
    2  A    between atoms: C_2  and  C_3
    3  A    between atoms: C_3  and  C_4
    4  A    between atoms: C_4  and  C_5
    5  A    between atoms: C_5  and  C_6
    6  A    between atoms: C_6  and  C_7
    7  A    between atoms: C_7  and  C_8
    8  A    between atoms: C_8  and  C_9
    9  A    between atoms: N_11  and  C_12
   10  A    between atoms: C_12  and  C_13
   11  A    between atoms: C_16  and  O_17
   12  A    between atoms: O_17  and  C_18
   13  A    between atoms: C_18  and  C_19
   14  A    between atoms: C_19  and  O_20
   15  A    between atoms: C_19  and  C_21
   16  A    between atoms: C_21  and  N_22
   17  A    between atoms: N_22  and  C_23
   18  A    between atoms: C_23  and  C_24
   19  A    between atoms: C_24  and  C_25
   20  A    between atoms: C_25  and  C_26
   21  A    between atoms: C_27  and  O_28
   22  A    between atoms: O_28  and  C_29
                            x       y       z     vdW  Elec       q    Type
                         _______ _______ _______ _____ _____    ______ ____

>  <TORSDO>
F 19

>  <SCORE>
-6.017

>  <RMSD_LB>
1.817

>  <RMSD_UB>
10.680

$$$$
CHEMBL176740
 OpenBabel10172500283D

 34 34  0  0  1  0  0  0  0  0999 V2000
  139.3430  137.5770  151.5580 C   0  0  0  0  0  0  0  0  0  0  0  0
  140.7000  137.3700  151.3000 C   0  0  0  0  0  3  0  0  0  0  0  0
  141.6670  137.7370  152.2370 C   0  0  0  0  0  3  0  0  0  0  0  0
  141.3010  138.3220  153.4570 C   0  0  0  0  0  0  0  0  0  0  0  0
  139.9380  138.5320  153.7320 C   0  0  0  0  0  0  0  0  0  0  0  0
  138.9720  138.1240  152.7980 C   0  0  0  0  0  3  0  0  0  0  0  0
  139.4070  139.0780  154.8760 O   0  0  0  0  0  0  0  0  0  0  0  0
  138.1810  138.5240  155.3460 C   0  0  0  0  0  1  0  0  0  0  0  0
  142.2120  138.6880  154.4070 O   0  0  0  0  0  0  0  0  0  0  0  0
  143.5940  138.4060  154.1670 C   0  0  0  0  0  2  0  0  0  0  0  0
  144.4200  139.5460  154.7750 C   0  0  1  0  0  3  0  0  0  0  0  0
  144.0150  139.7740  156.1320 O   0  0  0  0  0  0  0  0  0  0  0  0
  143.0950  139.4920  156.2460 H   0  0  0  0  0  0  0  0  0  0  0  0
  145.9250  139.2270  154.7420 C   0  0  0  0  0  2  0  0  0  0  0  0
  146.7080  140.4510  154.5530 N   0  0  0  0  0  4  0  0  0  0  0  0
  147.6540  140.2990  154.8980 H   0  0  0  0  0  0  0  0  0  0  0  0
  146.2590  141.2090  155.0680 H   0  0  0  0  0  0  0  0  0  0  0  0
  146.7640  140.8130  153.1440 C   0  0  0  0  0  2  0  0  0  0  0  0
  146.2430  142.2360  152.9740 C   0  0  0  0  0  2  0  0  0  0  0  0
  145.6450  142.4180  151.5820 C   0  0  0  0  0  2  0  0  0  0  0  0
  146.7310  142.5290  150.5280 C   0  0  0  0  0  1  0  0  0  0  0  0
  138.3160  137.2420  150.5080 C   0  0  0  0  0  2  0  0  0  0  0  0
  136.0630  136.3130  150.2820 C   0  0  0  0  0  0  0  0  0  0  0  0
  136.1730  136.1420  149.0740 O   0  0  0  0  0  0  0  0  0  0  0  0
  137.0610  136.8240  151.0780 N   0  0  0  0  0  0  0  0  0  0  0  0
  136.9150  136.9070  152.0490 H   0  0  0  0  0  0  0  0  0  0  0  0
  134.7860  135.9750  151.0360 C   0  0  0  0  0  2  0  0  0  0  0  0
  134.8870  134.5940  151.6740 C   0  0  0  0  0  2  0  0  0  0  0  0
  134.2470  134.5400  153.0600 C   0  0  0  0  0  2  0  0  0  0  0  0
  135.3360  134.4960  154.1340 C   0  0  0  0  0  2  0  0  0  0  0  0
  135.0650  135.4940  155.2550 C   0  0  0  0  0  2  0  0  0  0  0  0
  134.6800  134.7700  156.5440 C   0  0  0  0  0  2  0  0  0  0  0  0
  136.9050  135.6030  157.3630 C   0  0  0  0  0  1  0  0  0  0  0  0
  135.4620  135.3110  157.7370 C   0  0  0  0  0  2  0  0  0  0  0  0
  1  6  1  0  0  0  0
  2  1  2  0  0  0  0
  2  3  1  0  0  0  0
  3  4  2  0  0  0  0
  4  5  1  0  0  0  0
  4  9  1  0  0  0  0
  5  7  1  0  0  0  0
  6  5  2  0  0  0  0
  7  8  1  0  0  0  0
 10  9  1  0  0  0  0
 11 10  1  1  0  0  0
 11 12  1  0  0  0  0
 12 13  1  0  0  0  0
 14 11  1  0  0  0  0
 15 14  1  0  0  0  0
 15 16  1  0  0  0  0
 15 17  1  0  0  0  0
 18 15  1  0  0  0  0
 19 18  1  0  0  0  0
 20 19  1  0  0  0  0
 21 20  1  0  0  0  0
 22 25  1  0  0  0  0
 22  1  1  0  0  0  0
 23 27  1  0  0  0  0
 23 25  1  0  0  0  0
 24 23  2  0  0  0  0
 25 26  1  0  0  0  0
 27 28  1  0  0  0  0
 28 29  1  0  0  0  0
 29 30  1  0  0  0  0
 30 31  1  0  0  0  0
 31 32  1  0  0  0  0
 32 34  1  0  0  0  0
 33 34  1  0  0  0  0
M  END
>  <MODEL>
8

>  <REMARK>
 VINA RESULT:    -6.006      2.354      9.998
 INTER + INTRA:         -14.923
 INTER:                 -13.729
 INTRA:                  -1.194
 UNBOUND:                -2.421
  Name = CHEMBL176740
  22 active torsions:
  status: ('A' for Active; 'I' for Inactive)
    1  A    between atoms: C_1  and  C_2
    2  A    between atoms: C_2  and  C_3
    3  A    between atoms: C_3  and  C_4
    4  A    between atoms: C_4  and  C_5
    5  A    between atoms: C_5  and  C_6
    6  A    between atoms: C_6  and  C_7
    7  A    between atoms: C_7  and  C_8
    8  A    between atoms: C_8  and  C_9
    9  A    between atoms: N_11  and  C_12
   10  A    between atoms: C_12  and  C_13
   11  A    between atoms: C_16  and  O_17
   12  A    between atoms: O_17  and  C_18
   13  A    between atoms: C_18  and  C_19
   14  A    between atoms: C_19  and  O_20
   15  A    between atoms: C_19  and  C_21
   16  A    between atoms: C_21  and  N_22
   17  A    between atoms: N_22  and  C_23
   18  A    between atoms: C_23  and  C_24
   19  A    between atoms: C_24  and  C_25
   20  A    between atoms: C_25  and  C_26
   21  A    between atoms: C_27  and  O_28
   22  A    between atoms: O_28  and  C_29
                            x       y       z     vdW  Elec       q    Type
                         _______ _______ _______ _____ _____    ______ ____

>  <TORSDO>
F 19

>  <SCORE>
-6.006

>  <RMSD_LB>
2.354

>  <RMSD_UB>
9.998

$$$$
CHEMBL176740
 OpenBabel10172500283D

 34 34  0  0  1  0  0  0  0  0999 V2000
  138.9350  137.5100  151.5440 C   0  0  0  0  0  0  0  0  0  0  0  0
  137.8640  137.3320  152.4230 C   0  0  0  0  0  3  0  0  0  0  0  0
  136.7410  136.5990  152.0370 C   0  0  0  0  0  3  0  0  0  0  0  0
  136.6590  136.0250  150.7610 C   0  0  0  0  0  0  0  0  0  0  0  0
  137.7320  136.1930  149.8680 C   0  0  0  0  0  0  0  0  0  0  0  0
  138.8730  136.9000  150.2800 C   0  0  0  0  0  3  0  0  0  0  0  0
  137.8220  135.6910  148.5910 O   0  0  0  0  0  0  0  0  0  0  0  0
  137.9160  136.6380  147.5310 C   0  0  0  0  0  1  0  0  0  0  0  0
  135.5840  135.2930  150.3440 O   0  0  0  0  0  0  0  0  0  0  0  0
  134.5140  135.9750  149.6800 C   0  0  0  0  0  2  0  0  0  0  0  0
  133.3230  136.0330  150.6450 C   0  0  1  0  0  3  0  0  0  0  0  0
  132.3690  136.9990  150.1870 O   0  0  0  0  0  0  0  0  0  0  0  0
  132.4860  137.8270  150.6770 H   0  0  0  0  0  0  0  0  0  0  0  0
  132.6370  134.6610  150.7690 C   0  0  0  0  0  2  0  0  0  0  0  0
  133.2540  133.8710  151.8370 N   0  0  0  0  0  4  0  0  0  0  0  0
  134.1110  133.4460  151.4870 H   0  0  0  0  0  0  0  0  0  0  0  0
  132.5960  133.1490  152.1330 H   0  0  0  0  0  0  0  0  0  0  0  0
  133.5700  134.7120  152.9830 C   0  0  0  0  0  2  0  0  0  0  0  0
  134.6980  134.0640  153.7800 C   0  0  0  0  0  2  0  0  0  0  0  0
  135.0690  134.9360  154.9760 C   0  0  0  0  0  2  0  0  0  0  0  0
  134.4030  134.4400  156.2460 C   0  0  0  0  0  1  0  0  0  0  0  0
  140.1090  138.3620  151.9490 C   0  0  0  0  0  2  0  0  0  0  0  0
  141.2780  138.1400  154.0880 C   0  0  0  0  0  0  0  0  0  0  0  0
  142.2620  137.6140  153.5810 O   0  0  0  0  0  0  0  0  0  0  0  0
  140.1810  138.5610  153.3730 N   0  0  0  0  0  0  0  0  0  0  0  0
  139.4360  139.0050  153.8410 H   0  0  0  0  0  0  0  0  0  0  0  0
  141.1660  138.3780  155.5850 C   0  0  0  0  0  2  0  0  0  0  0  0
  140.4180  137.2330  156.2590 C   0  0  0  0  0  2  0  0  0  0  0  0
  139.1280  137.6920  156.9370 C   0  0  0  0  0  2  0  0  0  0  0  0
  137.9900  136.7300  156.5920 C   0  0  0  0  0  2  0  0  0  0  0  0
  136.7350  137.0230  157.4090 C   0  0  0  0  0  2  0  0  0  0  0  0
  136.6150  136.0530  158.5840 C   0  0  0  0  0  2  0  0  0  0  0  0
  134.4040  136.0310  159.7780 C   0  0  0  0  0  1  0  0  0  0  0  0
  135.7870  136.6560  159.7160 C   0  0  0  0  0  2  0  0  0  0  0  0
  1 22  1  0  0  0  0
  1  2  1  0  0  0  0
  3  2  2  0  0  0  0
  4  3  1  0  0  0  0
  5  6  1  0  0  0  0
  5  4  2  0  0  0  0
  6  1  2  0  0  0  0
  7  5  1  0  0  0  0
  8  7  1  0  0  0  0
  9  4  1  0  0  0  0
 10  9  1  0  0  0  0
 11 10  1  6  0  0  0
 11 14  1  0  0  0  0
 12 11  1  0  0  0  0
 12 13  1  0  0  0  0
 14 15  1  0  0  0  0
 15 17  1  0  0  0  0
 15 18  1  0  0  0  0
 16 15  1  0  0  0  0
 18 19  1  0  0  0  0
 19 20  1  0  0  0  0
 20 21  1  0  0  0  0
 22 25  1  0  0  0  0
 23 27  1  0  0  0  0
 24 23  2  0  0  0  0
 25 26  1  0  0  0  0
 25 23  1  0  0  0  0
 27 28  1  0  0  0  0
 28 29  1  0  0  0  0
 30 29  1  0  0  0  0
 30 31  1  0  0  0  0
 31 32  1  0  0  0  0
 32 34  1  0  0  0  0
 34 33  1  0  0  0  0
M  END
>  <MODEL>
9

>  <REMARK>
 VINA RESULT:    -5.921      4.646      7.953
 INTER + INTRA:         -14.745
 INTER:                 -12.324
 INTRA:                  -2.421
 UNBOUND:                -2.421
  Name = CHEMBL176740
  22 active torsions:
  status: ('A' for Active; 'I' for Inactive)
    1  A    between atoms: C_1  and  C_2
    2  A    between atoms: C_2  and  C_3
    3  A    between atoms: C_3  and  C_4
    4  A    between atoms: C_4  and  C_5
    5  A    between atoms: C_5  and  C_6
    6  A    between atoms: C_6  and  C_7
    7  A    between atoms: C_7  and  C_8
    8  A    between atoms: C_8  and  C_9
    9  A    between atoms: N_11  and  C_12
   10  A    between atoms: C_12  and  C_13
   11  A    between atoms: C_16  and  O_17
   12  A    between atoms: O_17  and  C_18
   13  A    between atoms: C_18  and  C_19
   14  A    between atoms: C_19  and  O_20
   15  A    between atoms: C_19  and  C_21
   16  A    between atoms: C_21  and  N_22
   17  A    between atoms: N_22  and  C_23
   18  A    between atoms: C_23  and  C_24
   19  A    between atoms: C_24  and  C_25
   20  A    between atoms: C_25  and  C_26
   21  A    between atoms: C_27  and  O_28
   22  A    between atoms: O_28  and  C_29
                            x       y       z     vdW  Elec       q    Type
                         _______ _______ _______ _____ _____    ______ ____

>  <TORSDO>
F 19

>  <SCORE>
-5.921

>  <RMSD_LB>
4.646

>  <RMSD_UB>
7.953

$$$$
