CHEMBL313800
 OpenBabel10172500573D

 18 18  0  0  0  0  0  0  0  0999 V2000
  146.9350  141.8760  152.6940 C   0  0  0  0  0  0  0  0  0  0  0  0
  147.8930  142.2980  151.7660 C   0  0  0  0  0  3  0  0  0  0  0  0
  147.5950  142.3260  150.4030 C   0  0  0  0  0  3  0  0  0  0  0  0
  146.3370  141.9220  149.9460 C   0  0  0  0  0  0  0  0  0  0  0  0
  145.3580  141.5020  150.8530 C   0  0  0  0  0  0  0  0  0  0  0  0
  145.6740  141.4790  152.2220 C   0  0  0  0  0  3  0  0  0  0  0  0
  146.1030  141.9470  148.5990 O   0  0  0  0  0  0  0  0  0  0  0  0
  145.6100  142.6490  148.2220 H   0  0  0  0  0  0  0  0  0  0  0  0
  144.0790  141.0850  150.5930 O   0  0  0  0  0  0  0  0  0  0  0  0
  143.5710  139.9830  151.3320 C   0  0  0  0  0  1  0  0  0  0  0  0
  147.2710  141.8200  154.1620 C   0  0  0  0  0  2  0  0  0  0  0  0
  147.8070  139.4760  154.7220 C   0  0  0  0  0  0  0  0  0  0  0  0
  148.9610  139.5520  154.3130 O   0  0  0  0  0  0  0  0  0  0  0  0
  146.9290  140.5360  154.7230 N   0  0  0  0  0  0  0  0  0  0  0  0
  146.0370  140.4130  155.1190 H   0  0  0  0  0  0  0  0  0  0  0  0
  147.2390  138.1880  155.2840 C   0  0  0  0  0  2  0  0  0  0  0  0
  145.6440  136.7260  153.9590 C   0  0  0  0  0  1  0  0  0  0  0  0
  147.0970  137.0870  154.2330 C   0  0  0  0  0  2  0  0  0  0  0  0
  1 11  1  0  0  0  0
  2  1  2  0  0  0  0
  3  2  1  0  0  0  0
  4  3  2  0  0  0  0
  4  5  1  0  0  0  0
  5  6  2  0  0  0  0
  6  1  1  0  0  0  0
  7  4  1  0  0  0  0
  8  7  1  0  0  0  0
  9  5  1  0  0  0  0
  9 10  1  0  0  0  0
 11 14  1  0  0  0  0
 12 14  1  0  0  0  0
 12 16  1  0  0  0  0
 13 12  2  0  0  0  0
 14 15  1  0  0  0  0
 17 18  1  0  0  0  0
 18 16  1  0  0  0  0
M  END
>  <MODEL>
1

>  <REMARK>
 VINA RESULT:    -6.092      0.000      0.000
 INTER + INTRA:          -8.445
 INTER:                  -7.999
 INTRA:                  -0.447
 UNBOUND:                -0.394
  Name = CHEMBL313800
  8 active torsions:
  status: ('A' for Active; 'I' for Inactive)
    1  A    between atoms: C_1  and  C_2
    2  A    between atoms: C_2  and  C_3
    3  A    between atoms: C_3  and  C_4
    4  A    between atoms: N_6  and  C_7
    5  A    between atoms: C_7  and  C_8
    6  A    between atoms: C_11  and  O_12
    7  A    between atoms: C_13  and  O_14
    8  A    between atoms: O_14  and  C_15
                            x       y       z     vdW  Elec       q    Type
                         _______ _______ _______ _____ _____    ______ ____

>  <TORSDO>
F 6

>  <SCORE>
-6.092

>  <RMSD_LB>
0.000

>  <RMSD_UB>
0.000

$$$$
CHEMBL313800
 OpenBabel10172500573D

 18 18  0  0  0  0  0  0  0  0999 V2000
  143.2550  138.9300  154.2850 C   0  0  0  0  0  0  0  0  0  0  0  0
  143.3360  138.1620  153.1190 C   0  0  0  0  0  3  0  0  0  0  0  0
  142.1760  137.7230  152.4790 C   0  0  0  0  0  3  0  0  0  0  0  0
  140.9170  138.0370  153.0020 C   0  0  0  0  0  0  0  0  0  0  0  0
  140.8080  138.8090  154.1640 C   0  0  0  0  0  0  0  0  0  0  0  0
  141.9850  139.2430  154.7960 C   0  0  0  0  0  3  0  0  0  0  0  0
  139.8130  137.5630  152.3490 O   0  0  0  0  0  0  0  0  0  0  0  0
  139.3580  138.1110  151.7400 H   0  0  0  0  0  0  0  0  0  0  0  0
  139.6720  139.2200  154.8090 O   0  0  0  0  0  0  0  0  0  0  0  0
  138.9290  138.2530  155.5370 C   0  0  0  0  0  1  0  0  0  0  0  0
  144.5110  139.3770  154.9890 C   0  0  0  0  0  2  0  0  0  0  0  0
  146.0460  140.6980  153.5780 C   0  0  0  0  0  0  0  0  0  0  0  0
  146.6230  139.7120  153.1320 O   0  0  0  0  0  0  0  0  0  0  0  0
  144.9860  140.6290  154.4540 N   0  0  0  0  0  0  0  0  0  0  0  0
  144.5380  141.4620  154.7230 H   0  0  0  0  0  0  0  0  0  0  0  0
  146.4490  142.1070  153.1870 C   0  0  0  0  0  2  0  0  0  0  0  0
  145.6970  142.5620  150.8070 C   0  0  0  0  0  1  0  0  0  0  0  0
  146.8660  142.2270  151.7230 C   0  0  0  0  0  2  0  0  0  0  0  0
  1  6  1  0  0  0  0
  1 11  1  0  0  0  0
  2  1  2  0  0  0  0
  3  4  2  0  0  0  0
  3  2  1  0  0  0  0
  4  5  1  0  0  0  0
  5  6  2  0  0  0  0
  5  9  1  0  0  0  0
  7  4  1  0  0  0  0
  8  7  1  0  0  0  0
  9 10  1  0  0  0  0
 12 14  1  0  0  0  0
 13 12  2  0  0  0  0
 14 15  1  0  0  0  0
 14 11  1  0  0  0  0
 16 12  1  0  0  0  0
 17 18  1  0  0  0  0
 18 16  1  0  0  0  0
M  END
>  <MODEL>
2

>  <REMARK>
 VINA RESULT:    -5.649      3.642      5.707
 INTER + INTRA:          -7.860
 INTER:                  -7.497
 INTRA:                  -0.364
 UNBOUND:                -0.394
  Name = CHEMBL313800
  8 active torsions:
  status: ('A' for Active; 'I' for Inactive)
    1  A    between atoms: C_1  and  C_2
    2  A    between atoms: C_2  and  C_3
    3  A    between atoms: C_3  and  C_4
    4  A    between atoms: N_6  and  C_7
    5  A    between atoms: C_7  and  C_8
    6  A    between atoms: C_11  and  O_12
    7  A    between atoms: C_13  and  O_14
    8  A    between atoms: O_14  and  C_15
                            x       y       z     vdW  Elec       q    Type
                         _______ _______ _______ _____ _____    ______ ____

>  <TORSDO>
F 6

>  <SCORE>
-5.649

>  <RMSD_LB>
3.642

>  <RMSD_UB>
5.707

$$$$
CHEMBL313800
 OpenBabel10172500573D

 18 18  0  0  0  0  0  0  0  0999 V2000
  147.4840  142.2280  151.1950 C   0  0  0  0  0  0  0  0  0  0  0  0
  148.8530  142.2660  151.4780 C   0  0  0  0  0  3  0  0  0  0  0  0
  149.3180  142.0020  152.7670 C   0  0  0  0  0  3  0  0  0  0  0  0
  148.4180  141.7060  153.7960 C   0  0  0  0  0  0  0  0  0  0  0  0
  147.0440  141.6540  153.5390 C   0  0  0  0  0  0  0  0  0  0  0  0
  146.5920  141.9220  152.2370 C   0  0  0  0  0  3  0  0  0  0  0  0
  148.9240  141.4770  155.0460 O   0  0  0  0  0  0  0  0  0  0  0  0
  148.3820  141.0960  155.7080 H   0  0  0  0  0  0  0  0  0  0  0  0
  146.0260  141.3720  154.4110 O   0  0  0  0  0  0  0  0  0  0  0  0
  145.3760  140.1140  154.2970 C   0  0  0  0  0  1  0  0  0  0  0  0
  146.9840  142.5420  149.8090 C   0  0  0  0  0  2  0  0  0  0  0  0
  145.6730  140.5570  149.1480 C   0  0  0  0  0  0  0  0  0  0  0  0
  146.6580  139.8320  149.0520 O   0  0  0  0  0  0  0  0  0  0  0  0
  145.7330  141.8740  149.5450 N   0  0  0  0  0  0  0  0  0  0  0  0
  144.8940  142.3760  149.6530 H   0  0  0  0  0  0  0  0  0  0  0  0
  144.2760  140.0550  148.8430 C   0  0  0  0  0  2  0  0  0  0  0  0
  141.9590  139.9250  149.8690 C   0  0  0  0  0  1  0  0  0  0  0  0
  143.4550  139.7660  150.0990 C   0  0  0  0  0  2  0  0  0  0  0  0
  1  2  2  0  0  0  0
  1  6  1  0  0  0  0
  2  3  1  0  0  0  0
  3  4  2  0  0  0  0
  4  7  1  0  0  0  0
  5  4  1  0  0  0  0
  5  9  1  0  0  0  0
  6  5  2  0  0  0  0
  7  8  1  0  0  0  0
 10  9  1  0  0  0  0
 11  1  1  0  0  0  0
 12 14  1  0  0  0  0
 13 12  2  0  0  0  0
 14 15  1  0  0  0  0
 14 11  1  0  0  0  0
 16 12  1  0  0  0  0
 16 18  1  0  0  0  0
 17 18  1  0  0  0  0
M  END
>  <MODEL>
3

>  <REMARK>
 VINA RESULT:    -5.631      2.462      4.836
 INTER + INTRA:          -7.837
 INTER:                  -7.504
 INTRA:                  -0.332
 UNBOUND:                -0.394
  Name = CHEMBL313800
  8 active torsions:
  status: ('A' for Active; 'I' for Inactive)
    1  A    between atoms: C_1  and  C_2
    2  A    between atoms: C_2  and  C_3
    3  A    between atoms: C_3  and  C_4
    4  A    between atoms: N_6  and  C_7
    5  A    between atoms: C_7  and  C_8
    6  A    between atoms: C_11  and  O_12
    7  A    between atoms: C_13  and  O_14
    8  A    between atoms: O_14  and  C_15
                            x       y       z     vdW  Elec       q    Type
                         _______ _______ _______ _____ _____    ______ ____

>  <TORSDO>
F 6

>  <SCORE>
-5.631

>  <RMSD_LB>
2.462

>  <RMSD_UB>
4.836

$$$$
CHEMBL313800
 OpenBabel10172500573D

 18 18  0  0  0  0  0  0  0  0999 V2000
  146.6310  142.0540  151.3090 C   0  0  0  0  0  0  0  0  0  0  0  0
  147.6780  142.5210  150.5070 C   0  0  0  0  0  3  0  0  0  0  0  0
  148.9750  142.6050  151.0150 C   0  0  0  0  0  3  0  0  0  0  0  0
  149.2430  142.2330  152.3360 C   0  0  0  0  0  0  0  0  0  0  0  0
  148.2150  141.7550  153.1570 C   0  0  0  0  0  0  0  0  0  0  0  0
  146.9150  141.6770  152.6310 C   0  0  0  0  0  3  0  0  0  0  0  0
  150.5260  142.3560  152.7910 O   0  0  0  0  0  0  0  0  0  0  0  0
  150.7410  143.0250  153.4110 H   0  0  0  0  0  0  0  0  0  0  0  0
  148.2910  141.3380  154.4600 O   0  0  0  0  0  0  0  0  0  0  0  0
  148.2690  139.9410  154.7170 C   0  0  0  0  0  1  0  0  0  0  0  0
  145.2260  141.9920  150.7650 C   0  0  0  0  0  2  0  0  0  0  0  0
  143.4790  140.2530  150.9030 C   0  0  0  0  0  0  0  0  0  0  0  0
  143.2880  140.2280  149.6920 O   0  0  0  0  0  0  0  0  0  0  0  0
  144.4250  141.0500  151.5070 N   0  0  0  0  0  0  0  0  0  0  0  0
  144.5590  140.9740  152.4790 H   0  0  0  0  0  0  0  0  0  0  0  0
  142.6840  139.3850  151.8580 C   0  0  0  0  0  2  0  0  0  0  0  0
  143.0730  137.6650  153.6810 C   0  0  0  0  0  1  0  0  0  0  0  0
  143.4540  139.0310  153.1290 C   0  0  0  0  0  2  0  0  0  0  0  0
  1  6  1  0  0  0  0
  2  3  1  0  0  0  0
  2  1  2  0  0  0  0
  3  4  2  0  0  0  0
  4  7  1  0  0  0  0
  4  5  1  0  0  0  0
  5  9  1  0  0  0  0
  6  5  2  0  0  0  0
  7  8  1  0  0  0  0
  9 10  1  0  0  0  0
 11  1  1  0  0  0  0
 11 14  1  0  0  0  0
 12 14  1  0  0  0  0
 12 16  1  0  0  0  0
 13 12  2  0  0  0  0
 14 15  1  0  0  0  0
 16 18  1  0  0  0  0
 18 17  1  0  0  0  0
M  END
>  <MODEL>
4

>  <REMARK>
 VINA RESULT:    -5.617      2.013      4.469
 INTER + INTRA:          -7.817
 INTER:                  -7.410
 INTRA:                  -0.408
 UNBOUND:                -0.394
  Name = CHEMBL313800
  8 active torsions:
  status: ('A' for Active; 'I' for Inactive)
    1  A    between atoms: C_1  and  C_2
    2  A    between atoms: C_2  and  C_3
    3  A    between atoms: C_3  and  C_4
    4  A    between atoms: N_6  and  C_7
    5  A    between atoms: C_7  and  C_8
    6  A    between atoms: C_11  and  O_12
    7  A    between atoms: C_13  and  O_14
    8  A    between atoms: O_14  and  C_15
                            x       y       z     vdW  Elec       q    Type
                         _______ _______ _______ _____ _____    ______ ____

>  <TORSDO>
F 6

>  <SCORE>
-5.617

>  <RMSD_LB>
2.013

>  <RMSD_UB>
4.469

$$$$
CHEMBL313800
 OpenBabel10172500573D

 18 18  0  0  0  0  0  0  0  0999 V2000
  146.8560  142.2670  151.2460 C   0  0  0  0  0  0  0  0  0  0  0  0
  148.2530  142.2620  151.3240 C   0  0  0  0  0  3  0  0  0  0  0  0
  148.8960  141.8310  152.4850 C   0  0  0  0  0  3  0  0  0  0  0  0
  148.1500  141.4080  153.5910 C   0  0  0  0  0  0  0  0  0  0  0  0
  146.7520  141.3970  153.5370 C   0  0  0  0  0  0  0  0  0  0  0  0
  146.1200  141.8340  152.3610 C   0  0  0  0  0  3  0  0  0  0  0  0
  148.8290  141.0170  154.7120 O   0  0  0  0  0  0  0  0  0  0  0  0
  149.6190  141.4580  154.9580 H   0  0  0  0  0  0  0  0  0  0  0  0
  145.8670  141.0090  154.5070 O   0  0  0  0  0  0  0  0  0  0  0  0
  145.1230  139.8170  154.2970 C   0  0  0  0  0  1  0  0  0  0  0  0
  146.1660  142.7600  150.0000 C   0  0  0  0  0  2  0  0  0  0  0  0
  145.7000  140.7340  148.6700 C   0  0  0  0  0  0  0  0  0  0  0  0
  144.7440  140.3960  149.3600 O   0  0  0  0  0  0  0  0  0  0  0  0
  146.4240  141.8850  148.8840 N   0  0  0  0  0  0  0  0  0  0  0  0
  147.1430  142.1170  148.2540 H   0  0  0  0  0  0  0  0  0  0  0  0
  146.1700  139.9040  147.4920 C   0  0  0  0  0  2  0  0  0  0  0  0
  148.0290  138.3590  146.7210 C   0  0  0  0  0  1  0  0  0  0  0  0
  147.1610  138.8100  147.8870 C   0  0  0  0  0  2  0  0  0  0  0  0
  1  2  2  0  0  0  0
  1  6  1  0  0  0  0
  2  3  1  0  0  0  0
  3  4  2  0  0  0  0
  4  7  1  0  0  0  0
  5  4  1  0  0  0  0
  5  9  1  0  0  0  0
  6  5  2  0  0  0  0
  7  8  1  0  0  0  0
 10  9  1  0  0  0  0
 11  1  1  0  0  0  0
 12 14  1  0  0  0  0
 12 13  2  0  0  0  0
 14 11  1  0  0  0  0
 15 14  1  0  0  0  0
 16 18  1  0  0  0  0
 16 12  1  0  0  0  0
 17 18  1  0  0  0  0
M  END
>  <MODEL>
5

>  <REMARK>
 VINA RESULT:    -5.551      2.746      5.127
 INTER + INTRA:          -7.731
 INTER:                  -7.320
 INTRA:                  -0.411
 UNBOUND:                -0.394
  Name = CHEMBL313800
  8 active torsions:
  status: ('A' for Active; 'I' for Inactive)
    1  A    between atoms: C_1  and  C_2
    2  A    between atoms: C_2  and  C_3
    3  A    between atoms: C_3  and  C_4
    4  A    between atoms: N_6  and  C_7
    5  A    between atoms: C_7  and  C_8
    6  A    between atoms: C_11  and  O_12
    7  A    between atoms: C_13  and  O_14
    8  A    between atoms: O_14  and  C_15
                            x       y       z     vdW  Elec       q    Type
                         _______ _______ _______ _____ _____    ______ ____

>  <TORSDO>
F 6

>  <SCORE>
-5.551

>  <RMSD_LB>
2.746

>  <RMSD_UB>
5.127

$$$$
CHEMBL313800
 OpenBabel10172500573D

 18 18  0  0  0  0  0  0  0  0999 V2000
  140.6510  138.2830  153.5540 C   0  0  0  0  0  0  0  0  0  0  0  0
  140.4120  137.7780  152.2710 C   0  0  0  0  0  3  0  0  0  0  0  0
  141.4670  137.3090  151.4870 C   0  0  0  0  0  3  0  0  0  0  0  0
  142.7790  137.3480  151.9700 C   0  0  0  0  0  0  0  0  0  0  0  0
  143.0450  137.8420  153.2520 C   0  0  0  0  0  0  0  0  0  0  0  0
  141.9730  138.3100  154.0290 C   0  0  0  0  0  3  0  0  0  0  0  0
  143.7780  136.8970  151.1530 O   0  0  0  0  0  0  0  0  0  0  0  0
  143.6870  136.9620  150.2220 H   0  0  0  0  0  0  0  0  0  0  0  0
  144.2530  137.9460  153.8900 O   0  0  0  0  0  0  0  0  0  0  0  0
  144.5840  139.1860  154.4980 C   0  0  0  0  0  1  0  0  0  0  0  0
  139.5130  138.8150  154.3860 C   0  0  0  0  0  2  0  0  0  0  0  0
  137.4250  137.9890  155.4110 C   0  0  0  0  0  0  0  0  0  0  0  0
  136.9560  139.1120  155.5670 O   0  0  0  0  0  0  0  0  0  0  0  0
  138.6410  137.7490  154.8120 N   0  0  0  0  0  0  0  0  0  0  0  0
  138.9250  136.8180  154.6720 H   0  0  0  0  0  0  0  0  0  0  0  0
  136.6870  136.7430  155.8610 C   0  0  0  0  0  2  0  0  0  0  0  0
  136.6320  135.5100  158.0770 C   0  0  0  0  0  1  0  0  0  0  0  0
  137.4730  135.9150  156.8750 C   0  0  0  0  0  2  0  0  0  0  0  0
  1  6  1  0  0  0  0
  1 11  1  0  0  0  0
  2  1  2  0  0  0  0
  3  4  2  0  0  0  0
  3  2  1  0  0  0  0
  4  5  1  0  0  0  0
  5  9  1  0  0  0  0
  5  6  2  0  0  0  0
  7  4  1  0  0  0  0
  8  7  1  0  0  0  0
  9 10  1  0  0  0  0
 11 14  1  0  0  0  0
 12 13  2  0  0  0  0
 12 16  1  0  0  0  0
 14 12  1  0  0  0  0
 15 14  1  0  0  0  0
 16 18  1  0  0  0  0
 18 17  1  0  0  0  0
M  END
>  <MODEL>
6

>  <REMARK>
 VINA RESULT:    -5.490      6.196      8.175
 INTER + INTRA:          -7.649
 INTER:                  -7.383
 INTRA:                  -0.267
 UNBOUND:                -0.394
  Name = CHEMBL313800
  8 active torsions:
  status: ('A' for Active; 'I' for Inactive)
    1  A    between atoms: C_1  and  C_2
    2  A    between atoms: C_2  and  C_3
    3  A    between atoms: C_3  and  C_4
    4  A    between atoms: N_6  and  C_7
    5  A    between atoms: C_7  and  C_8
    6  A    between atoms: C_11  and  O_12
    7  A    between atoms: C_13  and  O_14
    8  A    between atoms: O_14  and  C_15
                            x       y       z     vdW  Elec       q    Type
                         _______ _______ _______ _____ _____    ______ ____

>  <TORSDO>
F 6

>  <SCORE>
-5.490

>  <RMSD_LB>
6.196

>  <RMSD_UB>
8.175

$$$$
CHEMBL313800
 OpenBabel10172500573D

 18 18  0  0  0  0  0  0  0  0999 V2000
  147.0510  138.3440  152.5200 C   0  0  0  0  0  0  0  0  0  0  0  0
  146.6840  137.3320  153.4130 C   0  0  0  0  0  3  0  0  0  0  0  0
  147.0210  137.4250  154.7650 C   0  0  0  0  0  3  0  0  0  0  0  0
  147.7380  138.5280  155.2410 C   0  0  0  0  0  0  0  0  0  0  0  0
  148.1110  139.5570  154.3690 C   0  0  0  0  0  0  0  0  0  0  0  0
  147.7650  139.4480  153.0120 C   0  0  0  0  0  3  0  0  0  0  0  0
  148.0620  138.5590  156.5690 O   0  0  0  0  0  0  0  0  0  0  0  0
  147.4300  138.2990  157.2110 H   0  0  0  0  0  0  0  0  0  0  0  0
  148.8000  140.7060  154.6550 O   0  0  0  0  0  0  0  0  0  0  0  0
  148.8930  141.6990  153.6430 C   0  0  0  0  0  1  0  0  0  0  0  0
  146.7110  138.2260  151.0560 C   0  0  0  0  0  2  0  0  0  0  0  0
  145.9090  140.1400  149.7200 C   0  0  0  0  0  0  0  0  0  0  0  0
  144.7410  139.7640  149.7230 O   0  0  0  0  0  0  0  0  0  0  0  0
  146.9240  139.4770  150.3720 N   0  0  0  0  0  0  0  0  0  0  0  0
  147.8250  139.8710  150.3710 H   0  0  0  0  0  0  0  0  0  0  0  0
  146.3430  141.3980  148.9940 C   0  0  0  0  0  2  0  0  0  0  0  0
  145.6740  142.6390  151.1030 C   0  0  0  0  0  1  0  0  0  0  0  0
  146.6500  142.5590  149.9380 C   0  0  0  0  0  2  0  0  0  0  0  0
  1  6  2  0  0  0  0
  1  2  1  0  0  0  0
  2  3  2  0  0  0  0
  3  4  1  0  0  0  0
  4  7  1  0  0  0  0
  5  9  1  0  0  0  0
  5  4  2  0  0  0  0
  6  5  1  0  0  0  0
  7  8  1  0  0  0  0
 10  9  1  0  0  0  0
 11  1  1  0  0  0  0
 12 13  2  0  0  0  0
 12 14  1  0  0  0  0
 14 11  1  0  0  0  0
 15 14  1  0  0  0  0
 16 12  1  0  0  0  0
 16 18  1  0  0  0  0
 18 17  1  0  0  0  0
M  END
>  <MODEL>
7

>  <REMARK>
 VINA RESULT:    -5.471      1.964      5.951
 INTER + INTRA:          -7.625
 INTER:                  -7.189
 INTRA:                  -0.436
 UNBOUND:                -0.394
  Name = CHEMBL313800
  8 active torsions:
  status: ('A' for Active; 'I' for Inactive)
    1  A    between atoms: C_1  and  C_2
    2  A    between atoms: C_2  and  C_3
    3  A    between atoms: C_3  and  C_4
    4  A    between atoms: N_6  and  C_7
    5  A    between atoms: C_7  and  C_8
    6  A    between atoms: C_11  and  O_12
    7  A    between atoms: C_13  and  O_14
    8  A    between atoms: O_14  and  C_15
                            x       y       z     vdW  Elec       q    Type
                         _______ _______ _______ _____ _____    ______ ____

>  <TORSDO>
F 6

>  <SCORE>
-5.471

>  <RMSD_LB>
1.964

>  <RMSD_UB>
5.951

$$$$
CHEMBL313800
 OpenBabel10172500573D

 18 18  0  0  0  0  0  0  0  0999 V2000
  144.9150  140.6300  152.1620 C   0  0  0  0  0  0  0  0  0  0  0  0
  145.5910  141.8410  151.9820 C   0  0  0  0  0  3  0  0  0  0  0  0
  146.5890  142.2340  152.8730 C   0  0  0  0  0  3  0  0  0  0  0  0
  146.9200  141.4260  153.9660 C   0  0  0  0  0  0  0  0  0  0  0  0
  146.2640  140.2060  154.1660 C   0  0  0  0  0  0  0  0  0  0  0  0
  145.2610  139.8250  153.2600 C   0  0  0  0  0  3  0  0  0  0  0  0
  147.8900  141.8680  154.8220 O   0  0  0  0  0  0  0  0  0  0  0  0
  148.7840  141.6220  154.6850 H   0  0  0  0  0  0  0  0  0  0  0  0
  146.4600  139.2880  155.1640 O   0  0  0  0  0  0  0  0  0  0  0  0
  147.5770  138.4160  155.0600 C   0  0  0  0  0  1  0  0  0  0  0  0
  143.8170  140.2220  151.2130 C   0  0  0  0  0  2  0  0  0  0  0  0
  142.4490  138.2310  151.7200 C   0  0  0  0  0  0  0  0  0  0  0  0
  143.1060  137.4890  150.9970 O   0  0  0  0  0  0  0  0  0  0  0  0
  142.7440  139.5610  151.9150 N   0  0  0  0  0  0  0  0  0  0  0  0
  142.2050  140.0790  152.5540 H   0  0  0  0  0  0  0  0  0  0  0  0
  141.2390  137.7360  152.4870 C   0  0  0  0  0  2  0  0  0  0  0  0
  140.9470  138.0270  154.9900 C   0  0  0  0  0  1  0  0  0  0  0  0
  140.8220  138.6740  153.6180 C   0  0  0  0  0  2  0  0  0  0  0  0
  1  6  1  0  0  0  0
  2  1  2  0  0  0  0
  2  3  1  0  0  0  0
  3  4  2  0  0  0  0
  4  5  1  0  0  0  0
  4  7  1  0  0  0  0
  5  9  1  0  0  0  0
  6  5  2  0  0  0  0
  8  7  1  0  0  0  0
 10  9  1  0  0  0  0
 11 14  1  0  0  0  0
 11  1  1  0  0  0  0
 12 14  1  0  0  0  0
 12 16  1  0  0  0  0
 13 12  2  0  0  0  0
 14 15  1  0  0  0  0
 16 18  1  0  0  0  0
 18 17  1  0  0  0  0
M  END
>  <MODEL>
8

>  <REMARK>
 VINA RESULT:    -5.446      2.724      5.040
 INTER + INTRA:          -7.592
 INTER:                  -7.148
 INTRA:                  -0.444
 UNBOUND:                -0.394
  Name = CHEMBL313800
  8 active torsions:
  status: ('A' for Active; 'I' for Inactive)
    1  A    between atoms: C_1  and  C_2
    2  A    between atoms: C_2  and  C_3
    3  A    between atoms: C_3  and  C_4
    4  A    between atoms: N_6  and  C_7
    5  A    between atoms: C_7  and  C_8
    6  A    between atoms: C_11  and  O_12
    7  A    between atoms: C_13  and  O_14
    8  A    between atoms: O_14  and  C_15
                            x       y       z     vdW  Elec       q    Type
                         _______ _______ _______ _____ _____    ______ ____

>  <TORSDO>
F 6

>  <SCORE>
-5.446

>  <RMSD_LB>
2.724

>  <RMSD_UB>
5.040

$$$$
CHEMBL313800
 OpenBabel10172500573D

 18 18  0  0  0  0  0  0  0  0999 V2000
  133.9590  134.6640  147.3830 C   0  0  0  0  0  0  0  0  0  0  0  0
  133.0820  133.6170  147.6870 C   0  0  0  0  0  3  0  0  0  0  0  0
  132.7240  133.3540  149.0100 C   0  0  0  0  0  3  0  0  0  0  0  0
  133.2470  134.1280  150.0510 C   0  0  0  0  0  0  0  0  0  0  0  0
  134.1210  135.1850  149.7740 C   0  0  0  0  0  0  0  0  0  0  0  0
  134.4710  135.4370  148.4370 C   0  0  0  0  0  3  0  0  0  0  0  0
  132.8830  133.8140  151.3310 O   0  0  0  0  0  0  0  0  0  0  0  0
  133.3460  133.1480  151.8000 H   0  0  0  0  0  0  0  0  0  0  0  0
  134.7180  136.0490  150.6550 O   0  0  0  0  0  0  0  0  0  0  0  0
  135.9650  135.6710  151.2200 C   0  0  0  0  0  1  0  0  0  0  0  0
  134.3650  134.9260  145.9550 C   0  0  0  0  0  2  0  0  0  0  0  0
  135.7980  133.1270  145.0600 C   0  0  0  0  0  0  0  0  0  0  0  0
  136.8260  133.5830  145.5510 O   0  0  0  0  0  0  0  0  0  0  0  0
  134.5550  133.6900  145.2360 N   0  0  0  0  0  0  0  0  0  0  0  0
  133.7690  133.2350  144.8580 H   0  0  0  0  0  0  0  0  0  0  0  0
  135.8060  131.8710  144.2110 C   0  0  0  0  0  2  0  0  0  0  0  0
  137.3190  132.5470  142.2900 C   0  0  0  0  0  1  0  0  0  0  0  0
  137.1360  131.6380  143.4970 C   0  0  0  0  0  2  0  0  0  0  0  0
  1  2  2  0  0  0  0
  1  6  1  0  0  0  0
  2  3  1  0  0  0  0
  3  4  2  0  0  0  0
  4  7  1  0  0  0  0
  5  4  1  0  0  0  0
  5  9  1  0  0  0  0
  6  5  2  0  0  0  0
  7  8  1  0  0  0  0
  9 10  1  0  0  0  0
 11  1  1  0  0  0  0
 12 14  1  0  0  0  0
 12 13  2  0  0  0  0
 14 11  1  0  0  0  0
 15 14  1  0  0  0  0
 16 12  1  0  0  0  0
 17 18  1  0  0  0  0
 18 16  1  0  0  0  0
M  END
>  <MODEL>
9

>  <REMARK>
 VINA RESULT:    -5.181     12.572     15.302
 INTER + INTRA:          -7.241
 INTER:                  -6.847
 INTRA:                  -0.394
 UNBOUND:                -0.394
  Name = CHEMBL313800
  8 active torsions:
  status: ('A' for Active; 'I' for Inactive)
    1  A    between atoms: C_1  and  C_2
    2  A    between atoms: C_2  and  C_3
    3  A    between atoms: C_3  and  C_4
    4  A    between atoms: N_6  and  C_7
    5  A    between atoms: C_7  and  C_8
    6  A    between atoms: C_11  and  O_12
    7  A    between atoms: C_13  and  O_14
    8  A    between atoms: O_14  and  C_15
                            x       y       z     vdW  Elec       q    Type
                         _______ _______ _______ _____ _____    ______ ____

>  <TORSDO>
F 6

>  <SCORE>
-5.181

>  <RMSD_LB>
12.572

>  <RMSD_UB>
15.302

$$$$
