CHEMBL4634699
 OpenBabel10172500033D

 26 26  0  0  1  0  0  0  0  0999 V2000
  144.1710  138.3420  153.4880 N   0  0  0  0  0  0  0  0  0  0  0  0
  145.3650  137.9420  154.0380 C   0  0  0  0  0  0  0  0  0  0  0  0
  145.8130  136.8030  153.9580 O   0  0  0  0  0  0  0  0  0  0  0  0
  143.8810  139.2750  153.6090 H   0  0  0  0  0  0  0  0  0  0  0  0
  143.3280  137.4420  152.7400 C   0  0  0  0  0  2  0  0  0  0  0  0
  140.0580  138.2040  154.5710 C   0  0  0  0  0  0  0  0  0  0  0  0
  141.4180  138.0170  154.3030 C   0  0  0  0  0  3  0  0  0  0  0  0
  141.8640  137.7000  153.0050 C   0  0  0  0  0  0  0  0  0  0  0  0
  140.9250  137.5790  151.9720 C   0  0  0  0  0  3  0  0  0  0  0  0
  139.5650  137.7580  152.2290 C   0  0  0  0  0  3  0  0  0  0  0  0
  139.1400  138.0650  153.5210 C   0  0  0  0  0  0  0  0  0  0  0  0
  139.4590  137.4670  156.7620 C   0  0  0  0  0  1  0  0  0  0  0  0
  139.5300  138.5090  155.7990 O   0  0  0  0  0  0  0  0  0  0  0  0
  137.8030  138.2250  153.7720 O   0  0  0  0  0  0  0  0  0  0  0  0
  137.3320  138.9300  153.3700 H   0  0  0  0  0  0  0  0  0  0  0  0
  146.1020  139.0430  154.7740 C   0  0  0  0  0  2  0  0  0  0  0  0
  147.5830  138.7270  154.9900 C   0  0  0  0  0  2  0  0  0  0  0  0
  148.5240  139.4400  154.0120 C   0  0  0  0  0  2  0  0  0  0  0  0
  148.6600  140.9290  154.3310 C   0  0  0  0  0  2  0  0  0  0  0  0
  148.7040  141.8040  153.0760 C   0  0  1  0  0  3  0  0  0  0  0  0
  150.0620  142.1550  152.7900 O   0  0  0  0  0  0  0  0  0  0  0  0
  150.3590  141.6770  152.0000 H   0  0  0  0  0  0  0  0  0  0  0  0
  148.1200  141.0850  151.8500 C   0  0  0  0  0  2  0  0  0  0  0  0
  146.7780  141.6420  151.3360 C   0  0  0  0  0  3  0  0  0  0  0  0
  145.9900  142.3530  152.4360 C   0  0  0  0  0  1  0  0  0  0  0  0
  147.0180  142.5910  150.1610 C   0  0  0  0  0  1  0  0  0  0  0  0
  1  4  1  0  0  0  0
  1  2  1  0  0  0  0
  2 16  1  0  0  0  0
  3  2  2  0  0  0  0
  5  8  1  0  0  0  0
  5  1  1  0  0  0  0
  6 13  1  0  0  0  0
  7  6  1  0  0  0  0
  8  7  2  0  0  0  0
  9 10  2  0  0  0  0
  9  8  1  0  0  0  0
 10 11  1  0  0  0  0
 11 14  1  0  0  0  0
 11  6  2  0  0  0  0
 13 12  1  0  0  0  0
 15 14  1  0  0  0  0
 16 17  1  0  0  0  0
 18 19  1  0  0  0  0
 18 17  1  0  0  0  0
 20 23  1  6  0  0  0
 20 19  1  0  0  0  0
 21 20  1  0  0  0  0
 22 21  1  0  0  0  0
 24 23  1  0  0  0  0
 24 25  1  0  0  0  0
 26 24  1  0  0  0  0
M  END
>  <MODEL>
1

>  <REMARK>
 VINA RESULT:    -6.856      0.000      0.000
 INTER + INTRA:         -12.270
 INTER:                 -11.254
 INTRA:                  -1.016
 UNBOUND:                -1.005
  Name = CHEMBL4634699
  15 active torsions:
  status: ('A' for Active; 'I' for Inactive)
    1  A    between atoms: C_1  and  O_2
    2  A    between atoms: O_2  and  C_3
    3  A    between atoms: C_5  and  C_6
    4  A    between atoms: C_6  and  N_7
    5  A    between atoms: C_8  and  C_10
    6  A    between atoms: C_10  and  C_11
    7  A    between atoms: C_11  and  C_12
    8  A    between atoms: C_12  and  C_13
    9  A    between atoms: C_13  and  C_14
   10  A    between atoms: C_14  and  O_15
   11  A    between atoms: C_14  and  C_16
   12  A    between atoms: C_16  and  C_17
   13  A    between atoms: C_17  and  C_18
   14  A    between atoms: C_17  and  C_19
   15  A    between atoms: C_22  and  O_23
                            x       y       z     vdW  Elec       q    Type
                         _______ _______ _______ _____ _____    ______ ____

>  <TORSDO>
F 12

>  <SCORE>
-6.856

>  <RMSD_LB>
0.000

>  <RMSD_UB>
0.000

$$$$
CHEMBL4634699
 OpenBabel10172500033D

 26 26  0  0  1  0  0  0  0  0999 V2000
  135.8500  135.2930  153.1120 N   0  0  0  0  0  0  0  0  0  0  0  0
  136.1610  135.4010  151.7780 C   0  0  0  0  0  0  0  0  0  0  0  0
  136.9180  136.2460  151.3140 O   0  0  0  0  0  0  0  0  0  0  0  0
  135.2230  134.5900  153.3980 H   0  0  0  0  0  0  0  0  0  0  0  0
  136.4090  136.1740  154.1060 C   0  0  0  0  0  2  0  0  0  0  0  0
  136.1920  135.9640  157.9190 C   0  0  0  0  0  0  0  0  0  0  0  0
  136.5970  136.3240  156.6290 C   0  0  0  0  0  3  0  0  0  0  0  0
  135.9270  135.8260  155.4940 C   0  0  0  0  0  0  0  0  0  0  0  0
  134.8360  134.9640  155.6700 C   0  0  0  0  0  3  0  0  0  0  0  0
  134.4270  134.5940  156.9520 C   0  0  0  0  0  3  0  0  0  0  0  0
  135.1050  135.0910  158.0640 C   0  0  0  0  0  0  0  0  0  0  0  0
  137.3350  137.7010  159.0930 C   0  0  0  0  0  1  0  0  0  0  0  0
  136.7830  136.3920  159.0800 O   0  0  0  0  0  0  0  0  0  0  0  0
  134.7100  134.7130  159.3200 O   0  0  0  0  0  0  0  0  0  0  0  0
  134.8220  135.3000  160.0430 H   0  0  0  0  0  0  0  0  0  0  0  0
  135.4740  134.3730  150.9010 C   0  0  0  0  0  2  0  0  0  0  0  0
  134.0380  134.0810  151.3390 C   0  0  0  0  0  2  0  0  0  0  0  0
  133.1690  133.4430  150.2480 C   0  0  0  0  0  2  0  0  0  0  0  0
  133.9880  133.0570  149.0160 C   0  0  0  0  0  2  0  0  0  0  0  0
  133.4750  133.7160  147.7330 C   0  0  1  0  0  3  0  0  0  0  0  0
  132.0460  133.6460  147.7030 O   0  0  0  0  0  0  0  0  0  0  0  0
  131.6760  134.5070  147.9550 H   0  0  0  0  0  0  0  0  0  0  0  0
  133.8910  135.1920  147.6350 C   0  0  0  0  0  2  0  0  0  0  0  0
  132.7410  136.2100  147.7570 C   0  0  0  0  0  3  0  0  0  0  0  0
  132.7890  136.9780  149.0780 C   0  0  0  0  0  1  0  0  0  0  0  0
  132.7740  137.1840  146.5790 C   0  0  0  0  0  1  0  0  0  0  0  0
  1  4  1  0  0  0  0
  1  5  1  0  0  0  0
  2  1  1  0  0  0  0
  3  2  2  0  0  0  0
  5  8  1  0  0  0  0
  6 11  1  0  0  0  0
  6 13  1  0  0  0  0
  7  6  2  0  0  0  0
  8  9  2  0  0  0  0
  8  7  1  0  0  0  0
  9 10  1  0  0  0  0
 10 11  2  0  0  0  0
 11 14  1  0  0  0  0
 13 12  1  0  0  0  0
 14 15  1  0  0  0  0
 16 17  1  0  0  0  0
 16  2  1  0  0  0  0
 18 17  1  0  0  0  0
 19 18  1  0  0  0  0
 20 23  1  1  0  0  0
 20 19  1  0  0  0  0
 21 20  1  0  0  0  0
 21 22  1  0  0  0  0
 23 24  1  0  0  0  0
 24 25  1  0  0  0  0
 26 24  1  0  0  0  0
M  END
>  <MODEL>
2

>  <REMARK>
 VINA RESULT:    -6.580      9.366     12.032
 INTER + INTRA:         -11.816
 INTER:                 -10.652
 INTRA:                  -1.163
 UNBOUND:                -1.005
  Name = CHEMBL4634699
  15 active torsions:
  status: ('A' for Active; 'I' for Inactive)
    1  A    between atoms: C_1  and  O_2
    2  A    between atoms: O_2  and  C_3
    3  A    between atoms: C_5  and  C_6
    4  A    between atoms: C_6  and  N_7
    5  A    between atoms: C_8  and  C_10
    6  A    between atoms: C_10  and  C_11
    7  A    between atoms: C_11  and  C_12
    8  A    between atoms: C_12  and  C_13
    9  A    between atoms: C_13  and  C_14
   10  A    between atoms: C_14  and  O_15
   11  A    between atoms: C_14  and  C_16
   12  A    between atoms: C_16  and  C_17
   13  A    between atoms: C_17  and  C_18
   14  A    between atoms: C_17  and  C_19
   15  A    between atoms: C_22  and  O_23
                            x       y       z     vdW  Elec       q    Type
                         _______ _______ _______ _____ _____    ______ ____

>  <TORSDO>
F 12

>  <SCORE>
-6.580

>  <RMSD_LB>
9.366

>  <RMSD_UB>
12.032

$$$$
CHEMBL4634699
 OpenBabel10172500033D

 26 26  0  0  1  0  0  0  0  0999 V2000
  143.8000  137.0280  151.7780 N   0  0  0  0  0  0  0  0  0  0  0  0
  144.9460  136.5520  151.1890 C   0  0  0  0  0  0  0  0  0  0  0  0
  144.9990  136.0980  150.0510 O   0  0  0  0  0  0  0  0  0  0  0  0
  143.8460  137.3660  152.7020 H   0  0  0  0  0  0  0  0  0  0  0  0
  142.5330  137.0480  151.0900 C   0  0  0  0  0  2  0  0  0  0  0  0
  140.6630  138.5450  154.0720 C   0  0  0  0  0  0  0  0  0  0  0  0
  141.6680  137.9730  153.2860 C   0  0  0  0  0  3  0  0  0  0  0  0
  141.4620  137.7200  151.9150 C   0  0  0  0  0  0  0  0  0  0  0  0
  140.2290  138.0560  151.3390 C   0  0  0  0  0  3  0  0  0  0  0  0
  139.2170  138.6220  152.1140 C   0  0  0  0  0  3  0  0  0  0  0  0
  139.4360  138.8600  153.4700 C   0  0  0  0  0  0  0  0  0  0  0  0
  140.5730  137.7510  156.3220 C   0  0  0  0  0  1  0  0  0  0  0  0
  140.7690  138.8230  155.4100 O   0  0  0  0  0  0  0  0  0  0  0  0
  138.4340  139.4020  154.2320 O   0  0  0  0  0  0  0  0  0  0  0  0
  137.7710  138.8480  154.5970 H   0  0  0  0  0  0  0  0  0  0  0  0
  146.1720  136.6280  152.0780 C   0  0  0  0  0  2  0  0  0  0  0  0
  146.6060  138.0650  152.3730 C   0  0  0  0  0  2  0  0  0  0  0  0
  147.4000  138.2240  153.6750 C   0  0  0  0  0  2  0  0  0  0  0  0
  147.0470  139.5200  154.4060 C   0  0  0  0  0  2  0  0  0  0  0  0
  148.2030  140.5230  154.4280 C   0  0  1  0  0  3  0  0  0  0  0  0
  149.3340  139.9570  153.7590 O   0  0  0  0  0  0  0  0  0  0  0  0
  149.1980  140.0040  152.7990 H   0  0  0  0  0  0  0  0  0  0  0  0
  147.8370  141.8430  153.7320 C   0  0  0  0  0  2  0  0  0  0  0  0
  147.2890  141.7020  152.2990 C   0  0  0  0  0  3  0  0  0  0  0  0
  145.9420  142.4030  152.1240 C   0  0  0  0  0  1  0  0  0  0  0  0
  148.3030  142.2480  151.2930 C   0  0  0  0  0  1  0  0  0  0  0  0
  1  4  1  0  0  0  0
  2  1  1  0  0  0  0
  2 16  1  0  0  0  0
  3  2  2  0  0  0  0
  5  1  1  0  0  0  0
  5  8  1  0  0  0  0
  6 13  1  0  0  0  0
  7  6  2  0  0  0  0
  8  7  1  0  0  0  0
  9  8  2  0  0  0  0
  9 10  1  0  0  0  0
 10 11  2  0  0  0  0
 11  6  1  0  0  0  0
 11 14  1  0  0  0  0
 13 12  1  0  0  0  0
 14 15  1  0  0  0  0
 16 17  1  0  0  0  0
 17 18  1  0  0  0  0
 18 19  1  0  0  0  0
 19 20  1  0  0  0  0
 20 23  1  6  0  0  0
 21 20  1  0  0  0  0
 22 21  1  0  0  0  0
 24 23  1  0  0  0  0
 25 24  1  0  0  0  0
 26 24  1  0  0  0  0
M  END
>  <MODEL>
3

>  <REMARK>
 VINA RESULT:    -6.503      1.674      2.016
 INTER + INTRA:         -11.689
 INTER:                 -10.616
 INTRA:                  -1.073
 UNBOUND:                -1.005
  Name = CHEMBL4634699
  15 active torsions:
  status: ('A' for Active; 'I' for Inactive)
    1  A    between atoms: C_1  and  O_2
    2  A    between atoms: O_2  and  C_3
    3  A    between atoms: C_5  and  C_6
    4  A    between atoms: C_6  and  N_7
    5  A    between atoms: C_8  and  C_10
    6  A    between atoms: C_10  and  C_11
    7  A    between atoms: C_11  and  C_12
    8  A    between atoms: C_12  and  C_13
    9  A    between atoms: C_13  and  C_14
   10  A    between atoms: C_14  and  O_15
   11  A    between atoms: C_14  and  C_16
   12  A    between atoms: C_16  and  C_17
   13  A    between atoms: C_17  and  C_18
   14  A    between atoms: C_17  and  C_19
   15  A    between atoms: C_22  and  O_23
                            x       y       z     vdW  Elec       q    Type
                         _______ _______ _______ _____ _____    ______ ____

>  <TORSDO>
F 12

>  <SCORE>
-6.503

>  <RMSD_LB>
1.674

>  <RMSD_UB>
2.016

$$$$
CHEMBL4634699
 OpenBabel10172500033D

 26 26  0  0  1  0  0  0  0  0999 V2000
  145.0870  138.4240  153.9920 N   0  0  0  0  0  0  0  0  0  0  0  0
  146.1370  137.6140  154.3500 C   0  0  0  0  0  0  0  0  0  0  0  0
  146.2530  136.4430  154.0060 O   0  0  0  0  0  0  0  0  0  0  0  0
  145.0680  139.3520  154.3220 H   0  0  0  0  0  0  0  0  0  0  0  0
  144.0110  137.9620  153.1510 C   0  0  0  0  0  2  0  0  0  0  0  0
  145.0670  138.6470  149.5390 C   0  0  0  0  0  0  0  0  0  0  0  0
  144.9560  138.0540  150.8010 C   0  0  0  0  0  3  0  0  0  0  0  0
  144.0790  138.5750  151.7720 C   0  0  0  0  0  0  0  0  0  0  0  0
  143.3060  139.7010  151.4580 C   0  0  0  0  0  3  0  0  0  0  0  0
  143.4120  140.3040  150.2050 C   0  0  0  0  0  3  0  0  0  0  0  0
  144.2900  139.7790  149.2570 C   0  0  0  0  0  0  0  0  0  0  0  0
  145.5760  136.9820  147.9050 C   0  0  0  0  0  1  0  0  0  0  0  0
  145.8940  138.2160  148.5340 O   0  0  0  0  0  0  0  0  0  0  0  0
  144.4030  140.3830  148.0330 O   0  0  0  0  0  0  0  0  0  0  0  0
  145.2500  140.5930  147.6900 H   0  0  0  0  0  0  0  0  0  0  0  0
  147.1670  138.2950  155.2300 C   0  0  0  0  0  2  0  0  0  0  0  0
  147.3730  139.7690  154.8740 C   0  0  0  0  0  2  0  0  0  0  0  0
  148.5960  140.0330  153.9880 C   0  0  0  0  0  2  0  0  0  0  0  0
  149.0050  141.5060  154.0010 C   0  0  0  0  0  2  0  0  0  0  0  0
  148.8770  142.1700  152.6280 C   0  0  1  0  0  3  0  0  0  0  0  0
  150.1790  142.5210  152.1480 O   0  0  0  0  0  0  0  0  0  0  0  0
  150.2260  143.4810  152.0160 H   0  0  0  0  0  0  0  0  0  0  0  0
  148.2150  141.2430  151.5970 C   0  0  0  0  0  2  0  0  0  0  0  0
  146.7950  141.6500  151.1590 C   0  0  0  0  0  3  0  0  0  0  0  0
  145.9940  142.2690  152.3050 C   0  0  0  0  0  1  0  0  0  0  0  0
  146.8670  142.6220  149.9810 C   0  0  0  0  0  1  0  0  0  0  0  0
  1  4  1  0  0  0  0
  1  2  1  0  0  0  0
  2 16  1  0  0  0  0
  3  2  2  0  0  0  0
  5  1  1  0  0  0  0
  6  7  1  0  0  0  0
  7  8  2  0  0  0  0
  8  5  1  0  0  0  0
  9  8  1  0  0  0  0
 10  9  2  0  0  0  0
 11  6  2  0  0  0  0
 11 10  1  0  0  0  0
 12 13  1  0  0  0  0
 13  6  1  0  0  0  0
 14 11  1  0  0  0  0
 15 14  1  0  0  0  0
 17 16  1  0  0  0  0
 18 19  1  0  0  0  0
 18 17  1  0  0  0  0
 20 23  1  6  0  0  0
 20 19  1  0  0  0  0
 21 20  1  0  0  0  0
 22 21  1  0  0  0  0
 24 23  1  0  0  0  0
 24 25  1  0  0  0  0
 26 24  1  0  0  0  0
M  END
>  <MODEL>
4

>  <REMARK>
 VINA RESULT:    -6.499      3.310      4.496
 INTER + INTRA:         -11.683
 INTER:                  -9.688
 INTRA:                  -1.995
 UNBOUND:                -1.005
  Name = CHEMBL4634699
  15 active torsions:
  status: ('A' for Active; 'I' for Inactive)
    1  A    between atoms: C_1  and  O_2
    2  A    between atoms: O_2  and  C_3
    3  A    between atoms: C_5  and  C_6
    4  A    between atoms: C_6  and  N_7
    5  A    between atoms: C_8  and  C_10
    6  A    between atoms: C_10  and  C_11
    7  A    between atoms: C_11  and  C_12
    8  A    between atoms: C_12  and  C_13
    9  A    between atoms: C_13  and  C_14
   10  A    between atoms: C_14  and  O_15
   11  A    between atoms: C_14  and  C_16
   12  A    between atoms: C_16  and  C_17
   13  A    between atoms: C_17  and  C_18
   14  A    between atoms: C_17  and  C_19
   15  A    between atoms: C_22  and  O_23
                            x       y       z     vdW  Elec       q    Type
                         _______ _______ _______ _____ _____    ______ ____

>  <TORSDO>
F 12

>  <SCORE>
-6.499

>  <RMSD_LB>
3.310

>  <RMSD_UB>
4.496

$$$$
CHEMBL4634699
 OpenBabel10172500033D

 26 26  0  0  1  0  0  0  0  0999 V2000
  138.5210  137.6980  153.8330 N   0  0  0  0  0  0  0  0  0  0  0  0
  139.3430  138.7980  153.8000 C   0  0  0  0  0  0  0  0  0  0  0  0
  139.4890  139.5780  154.7350 O   0  0  0  0  0  0  0  0  0  0  0  0
  138.4550  137.1290  153.0320 H   0  0  0  0  0  0  0  0  0  0  0  0
  137.7500  137.3500  155.0010 C   0  0  0  0  0  2  0  0  0  0  0  0
  135.0330  134.6910  155.4220 C   0  0  0  0  0  0  0  0  0  0  0  0
  135.9920  135.6670  155.7100 C   0  0  0  0  0  3  0  0  0  0  0  0
  136.6740  136.3410  154.6770 C   0  0  0  0  0  0  0  0  0  0  0  0
  136.3740  136.0260  153.3450 C   0  0  0  0  0  3  0  0  0  0  0  0
  135.4230  135.0500  153.0460 C   0  0  0  0  0  3  0  0  0  0  0  0
  134.7620  134.3890  154.0800 C   0  0  0  0  0  0  0  0  0  0  0  0
  133.8090  134.6940  157.4720 C   0  0  0  0  0  1  0  0  0  0  0  0
  134.3240  133.9810  156.3560 O   0  0  0  0  0  0  0  0  0  0  0  0
  133.8400  133.4210  153.7820 O   0  0  0  0  0  0  0  0  0  0  0  0
  133.3750  133.4510  152.9680 H   0  0  0  0  0  0  0  0  0  0  0  0
  140.0710  138.9810  152.4830 C   0  0  0  0  0  2  0  0  0  0  0  0
  140.4400  137.6540  151.8170 C   0  0  0  0  0  2  0  0  0  0  0  0
  141.9310  137.3030  151.9030 C   0  0  0  0  0  2  0  0  0  0  0  0
  142.8170  138.5460  151.8100 C   0  0  0  0  0  2  0  0  0  0  0  0
  143.7200  138.7230  153.0330 C   0  0  1  0  0  3  0  0  0  0  0  0
  143.1460  139.6990  153.9080 O   0  0  0  0  0  0  0  0  0  0  0  0
  142.1820  139.5960  153.9180 H   0  0  0  0  0  0  0  0  0  0  0  0
  143.8970  137.4120  153.8160 C   0  0  0  0  0  2  0  0  0  0  0  0
  145.3410  136.8850  153.9010 C   0  0  0  0  0  3  0  0  0  0  0  0
  145.9030  136.5160  152.5280 C   0  0  0  0  0  1  0  0  0  0  0  0
  146.2400  137.9210  154.5780 C   0  0  0  0  0  1  0  0  0  0  0  0
  1  5  1  0  0  0  0
  2  1  1  0  0  0  0
  2  3  2  0  0  0  0
  4  1  1  0  0  0  0
  6  7  1  0  0  0  0
  6 13  1  0  0  0  0
  8  5  1  0  0  0  0
  8  7  2  0  0  0  0
  9  8  1  0  0  0  0
 10  9  2  0  0  0  0
 10 11  1  0  0  0  0
 11  6  2  0  0  0  0
 13 12  1  0  0  0  0
 14 11  1  0  0  0  0
 15 14  1  0  0  0  0
 16  2  1  0  0  0  0
 17 18  1  0  0  0  0
 17 16  1  0  0  0  0
 19 18  1  0  0  0  0
 20 19  1  6  0  0  0
 20 23  1  0  0  0  0
 20 21  1  0  0  0  0
 21 22  1  0  0  0  0
 23 24  1  0  0  0  0
 24 26  1  0  0  0  0
 25 24  1  0  0  0  0
M  END
>  <MODEL>
5

>  <REMARK>
 VINA RESULT:    -6.482      3.676      6.274
 INTER + INTRA:         -11.656
 INTER:                 -10.590
 INTRA:                  -1.065
 UNBOUND:                -1.005
  Name = CHEMBL4634699
  15 active torsions:
  status: ('A' for Active; 'I' for Inactive)
    1  A    between atoms: C_1  and  O_2
    2  A    between atoms: O_2  and  C_3
    3  A    between atoms: C_5  and  C_6
    4  A    between atoms: C_6  and  N_7
    5  A    between atoms: C_8  and  C_10
    6  A    between atoms: C_10  and  C_11
    7  A    between atoms: C_11  and  C_12
    8  A    between atoms: C_12  and  C_13
    9  A    between atoms: C_13  and  C_14
   10  A    between atoms: C_14  and  O_15
   11  A    between atoms: C_14  and  C_16
   12  A    between atoms: C_16  and  C_17
   13  A    between atoms: C_17  and  C_18
   14  A    between atoms: C_17  and  C_19
   15  A    between atoms: C_22  and  O_23
                            x       y       z     vdW  Elec       q    Type
                         _______ _______ _______ _____ _____    ______ ____

>  <TORSDO>
F 12

>  <SCORE>
-6.482

>  <RMSD_LB>
3.676

>  <RMSD_UB>
6.274

$$$$
CHEMBL4634699
 OpenBabel10172500033D

 26 26  0  0  1  0  0  0  0  0999 V2000
  144.5240  137.1220  151.6730 N   0  0  0  0  0  0  0  0  0  0  0  0
  145.5780  136.4850  151.0630 C   0  0  0  0  0  0  0  0  0  0  0  0
  145.4660  135.7440  150.0920 O   0  0  0  0  0  0  0  0  0  0  0  0
  144.7020  137.6920  152.4560 H   0  0  0  0  0  0  0  0  0  0  0  0
  143.1670  136.9820  151.2070 C   0  0  0  0  0  2  0  0  0  0  0  0
  139.8730  138.0600  152.8250 C   0  0  0  0  0  0  0  0  0  0  0  0
  140.7960  137.5230  151.9210 C   0  0  0  0  0  3  0  0  0  0  0  0
  142.1740  137.5100  152.2150 C   0  0  0  0  0  0  0  0  0  0  0  0
  142.6160  138.0390  153.4350 C   0  0  0  0  0  3  0  0  0  0  0  0
  141.7050  138.5820  154.3410 C   0  0  0  0  0  3  0  0  0  0  0  0
  140.3450  138.5920  154.0320 C   0  0  0  0  0  0  0  0  0  0  0  0
  137.9630  137.2860  151.6190 C   0  0  0  0  0  1  0  0  0  0  0  0
  138.5180  138.1210  152.6260 O   0  0  0  0  0  0  0  0  0  0  0  0
  139.4550  139.1400  154.9180 O   0  0  0  0  0  0  0  0  0  0  0  0
  138.6560  139.5190  154.6060 H   0  0  0  0  0  0  0  0  0  0  0  0
  146.9220  136.7720  151.7020 C   0  0  0  0  0  2  0  0  0  0  0  0
  147.0410  138.2060  152.2200 C   0  0  0  0  0  2  0  0  0  0  0  0
  147.0770  138.3180  153.7490 C   0  0  0  0  0  2  0  0  0  0  0  0
  147.0790  139.7740  154.2170 C   0  0  0  0  0  2  0  0  0  0  0  0
  145.8680  140.5620  153.7100 C   0  0  1  0  0  3  0  0  0  0  0  0
  144.9870  140.8320  154.8040 O   0  0  0  0  0  0  0  0  0  0  0  0
  145.1170  141.7450  155.1060 H   0  0  0  0  0  0  0  0  0  0  0  0
  146.2740  141.9000  153.0720 C   0  0  0  0  0  2  0  0  0  0  0  0
  146.6420  141.8320  151.5770 C   0  0  0  0  0  3  0  0  0  0  0  0
  145.7260  142.7040  150.7180 C   0  0  0  0  0  1  0  0  0  0  0  0
  148.1010  142.2430  151.3760 C   0  0  0  0  0  1  0  0  0  0  0  0
  1  4  1  0  0  0  0
  2  1  1  0  0  0  0
  2 16  1  0  0  0  0
  3  2  2  0  0  0  0
  5  1  1  0  0  0  0
  5  8  1  0  0  0  0
  6 11  1  0  0  0  0
  7  8  1  0  0  0  0
  7  6  2  0  0  0  0
  8  9  2  0  0  0  0
  9 10  1  0  0  0  0
 11 10  2  0  0  0  0
 11 14  1  0  0  0  0
 12 13  1  0  0  0  0
 13  6  1  0  0  0  0
 15 14  1  0  0  0  0
 16 17  1  0  0  0  0
 17 18  1  0  0  0  0
 18 19  1  0  0  0  0
 20 23  1  1  0  0  0
 20 19  1  0  0  0  0
 20 21  1  0  0  0  0
 21 22  1  0  0  0  0
 24 23  1  0  0  0  0
 25 24  1  0  0  0  0
 26 24  1  0  0  0  0
M  END
>  <MODEL>
6

>  <REMARK>
 VINA RESULT:    -6.386      1.985      2.878
 INTER + INTRA:         -11.498
 INTER:                 -10.309
 INTRA:                  -1.189
 UNBOUND:                -1.005
  Name = CHEMBL4634699
  15 active torsions:
  status: ('A' for Active; 'I' for Inactive)
    1  A    between atoms: C_1  and  O_2
    2  A    between atoms: O_2  and  C_3
    3  A    between atoms: C_5  and  C_6
    4  A    between atoms: C_6  and  N_7
    5  A    between atoms: C_8  and  C_10
    6  A    between atoms: C_10  and  C_11
    7  A    between atoms: C_11  and  C_12
    8  A    between atoms: C_12  and  C_13
    9  A    between atoms: C_13  and  C_14
   10  A    between atoms: C_14  and  O_15
   11  A    between atoms: C_14  and  C_16
   12  A    between atoms: C_16  and  C_17
   13  A    between atoms: C_17  and  C_18
   14  A    between atoms: C_17  and  C_19
   15  A    between atoms: C_22  and  O_23
                            x       y       z     vdW  Elec       q    Type
                         _______ _______ _______ _____ _____    ______ ____

>  <TORSDO>
F 12

>  <SCORE>
-6.386

>  <RMSD_LB>
1.985

>  <RMSD_UB>
2.878

$$$$
CHEMBL4634699
 OpenBabel10172500033D

 26 26  0  0  1  0  0  0  0  0999 V2000
  138.7910  137.5740  154.6690 N   0  0  0  0  0  0  0  0  0  0  0  0
  139.3790  138.6960  154.1380 C   0  0  0  0  0  0  0  0  0  0  0  0
  138.9220  139.8290  154.2440 O   0  0  0  0  0  0  0  0  0  0  0  0
  139.2210  136.7000  154.5280 H   0  0  0  0  0  0  0  0  0  0  0  0
  137.5640  137.6330  155.4260 C   0  0  0  0  0  2  0  0  0  0  0  0
  134.8910  134.8990  155.5010 C   0  0  0  0  0  0  0  0  0  0  0  0
  135.7700  135.9090  155.9050 C   0  0  0  0  0  3  0  0  0  0  0  0
  136.5770  136.5860  154.9700 C   0  0  0  0  0  0  0  0  0  0  0  0
  136.4870  136.2390  153.6150 C   0  0  0  0  0  3  0  0  0  0  0  0
  135.6180  135.2290  153.2000 C   0  0  0  0  0  3  0  0  0  0  0  0
  134.8310  134.5650  154.1410 C   0  0  0  0  0  0  0  0  0  0  0  0
  133.9620  134.6220  157.6830 C   0  0  0  0  0  1  0  0  0  0  0  0
  134.0730  134.1840  156.3350 O   0  0  0  0  0  0  0  0  0  0  0  0
  133.9900  133.5640  153.7320 O   0  0  0  0  0  0  0  0  0  0  0  0
  133.6280  132.9700  154.3600 H   0  0  0  0  0  0  0  0  0  0  0  0
  140.6660  138.4180  153.3870 C   0  0  0  0  0  2  0  0  0  0  0  0
  140.4530  137.5660  152.1350 C   0  0  0  0  0  2  0  0  0  0  0  0
  141.1970  138.0780  150.8950 C   0  0  0  0  0  2  0  0  0  0  0  0
  140.2950  138.9250  149.9960 C   0  0  0  0  0  2  0  0  0  0  0  0
  138.8300  138.9040  150.4360 C   0  0  1  0  0  3  0  0  0  0  0  0
  138.3350  140.2450  150.5010 O   0  0  0  0  0  0  0  0  0  0  0  0
  137.4240  140.2690  150.1680 H   0  0  0  0  0  0  0  0  0  0  0  0
  137.9460  138.1070  149.4630 C   0  0  0  0  0  2  0  0  0  0  0  0
  137.4680  136.7360  149.9780 C   0  0  0  0  0  3  0  0  0  0  0  0
  135.9630  136.5420  149.7940 C   0  0  0  0  0  1  0  0  0  0  0  0
  138.2350  135.6150  149.2760 C   0  0  0  0  0  1  0  0  0  0  0  0
  1  5  1  0  0  0  0
  2  3  2  0  0  0  0
  2  1  1  0  0  0  0
  4  1  1  0  0  0  0
  6  7  1  0  0  0  0
  6 13  1  0  0  0  0
  8  5  1  0  0  0  0
  8  7  2  0  0  0  0
  9  8  1  0  0  0  0
 10  9  2  0  0  0  0
 10 11  1  0  0  0  0
 11  6  2  0  0  0  0
 13 12  1  0  0  0  0
 14 11  1  0  0  0  0
 14 15  1  0  0  0  0
 16  2  1  0  0  0  0
 17 16  1  0  0  0  0
 18 17  1  0  0  0  0
 19 20  1  0  0  0  0
 19 18  1  0  0  0  0
 20 23  1  6  0  0  0
 20 21  1  0  0  0  0
 22 21  1  0  0  0  0
 23 24  1  0  0  0  0
 25 24  1  0  0  0  0
 26 24  1  0  0  0  0
M  END
>  <MODEL>
7

>  <REMARK>
 VINA RESULT:    -6.201      5.759      8.037
 INTER + INTRA:         -11.194
 INTER:                  -9.674
 INTRA:                  -1.520
 UNBOUND:                -1.005
  Name = CHEMBL4634699
  15 active torsions:
  status: ('A' for Active; 'I' for Inactive)
    1  A    between atoms: C_1  and  O_2
    2  A    between atoms: O_2  and  C_3
    3  A    between atoms: C_5  and  C_6
    4  A    between atoms: C_6  and  N_7
    5  A    between atoms: C_8  and  C_10
    6  A    between atoms: C_10  and  C_11
    7  A    between atoms: C_11  and  C_12
    8  A    between atoms: C_12  and  C_13
    9  A    between atoms: C_13  and  C_14
   10  A    between atoms: C_14  and  O_15
   11  A    between atoms: C_14  and  C_16
   12  A    between atoms: C_16  and  C_17
   13  A    between atoms: C_17  and  C_18
   14  A    between atoms: C_17  and  C_19
   15  A    between atoms: C_22  and  O_23
                            x       y       z     vdW  Elec       q    Type
                         _______ _______ _______ _____ _____    ______ ____

>  <TORSDO>
F 12

>  <SCORE>
-6.201

>  <RMSD_LB>
5.759

>  <RMSD_UB>
8.037

$$$$
CHEMBL4634699
 OpenBabel10172500033D

 26 26  0  0  1  0  0  0  0  0999 V2000
  144.8010  138.4860  150.8270 N   0  0  0  0  0  0  0  0  0  0  0  0
  144.8060  139.6360  150.0770 C   0  0  0  0  0  0  0  0  0  0  0  0
  144.0600  139.8420  149.1260 O   0  0  0  0  0  0  0  0  0  0  0  0
  145.4420  138.3990  151.5690 H   0  0  0  0  0  0  0  0  0  0  0  0
  143.8900  137.3990  150.5640 C   0  0  0  0  0  2  0  0  0  0  0  0
  141.3540  137.9740  153.3690 C   0  0  0  0  0  0  0  0  0  0  0  0
  142.5620  137.8580  152.6730 C   0  0  0  0  0  3  0  0  0  0  0  0
  142.5800  137.5810  151.2920 C   0  0  0  0  0  0  0  0  0  0  0  0
  141.3640  137.4280  150.6120 C   0  0  0  0  0  3  0  0  0  0  0  0
  140.1530  137.5370  151.2960 C   0  0  0  0  0  3  0  0  0  0  0  0
  140.1540  137.8050  152.6650 C   0  0  0  0  0  0  0  0  0  0  0  0
  141.9180  139.3740  155.2190 C   0  0  0  0  0  1  0  0  0  0  0  0
  141.2370  138.2360  154.7090 O   0  0  0  0  0  0  0  0  0  0  0  0
  138.9630  137.8960  153.3360 O   0  0  0  0  0  0  0  0  0  0  0  0
  138.7190  138.7010  153.7500 H   0  0  0  0  0  0  0  0  0  0  0  0
  145.8330  140.6570  150.5250 C   0  0  0  0  0  2  0  0  0  0  0  0
  145.2690  141.6740  151.5180 C   0  0  0  0  0  2  0  0  0  0  0  0
  146.3150  142.2660  152.4700 C   0  0  0  0  0  2  0  0  0  0  0  0
  147.7410  141.9110  152.0460 C   0  0  0  0  0  2  0  0  0  0  0  0
  148.4360  140.9710  153.0340 C   0  0  1  0  0  3  0  0  0  0  0  0
  149.6660  141.5620  153.4640 O   0  0  0  0  0  0  0  0  0  0  0  0
  150.2950  141.5750  152.7250 H   0  0  0  0  0  0  0  0  0  0  0  0
  147.5720  140.6920  154.2730 C   0  0  0  0  0  2  0  0  0  0  0  0
  147.0970  139.2350  154.4310 C   0  0  0  0  0  3  0  0  0  0  0  0
  147.7360  138.5470  155.6380 C   0  0  0  0  0  1  0  0  0  0  0  0
  145.5730  139.1880  154.5430 C   0  0  0  0  0  1  0  0  0  0  0  0
  1  4  1  0  0  0  0
  2 16  1  0  0  0  0
  2  1  1  0  0  0  0
  3  2  2  0  0  0  0
  5  1  1  0  0  0  0
  5  8  1  0  0  0  0
  6 13  1  0  0  0  0
  7  6  1  0  0  0  0
  8  7  2  0  0  0  0
  9  8  1  0  0  0  0
  9 10  2  0  0  0  0
 10 11  1  0  0  0  0
 11 14  1  0  0  0  0
 11  6  2  0  0  0  0
 13 12  1  0  0  0  0
 14 15  1  0  0  0  0
 16 17  1  0  0  0  0
 17 18  1  0  0  0  0
 19 18  1  0  0  0  0
 20 19  1  6  0  0  0
 20 21  1  0  0  0  0
 20 23  1  0  0  0  0
 22 21  1  0  0  0  0
 23 24  1  0  0  0  0
 24 26  1  0  0  0  0
 24 25  1  0  0  0  0
M  END
>  <MODEL>
8

>  <REMARK>
 VINA RESULT:    -6.121      1.909      3.324
 INTER + INTRA:         -11.062
 INTER:                  -9.590
 INTRA:                  -1.472
 UNBOUND:                -1.005
  Name = CHEMBL4634699
  15 active torsions:
  status: ('A' for Active; 'I' for Inactive)
    1  A    between atoms: C_1  and  O_2
    2  A    between atoms: O_2  and  C_3
    3  A    between atoms: C_5  and  C_6
    4  A    between atoms: C_6  and  N_7
    5  A    between atoms: C_8  and  C_10
    6  A    between atoms: C_10  and  C_11
    7  A    between atoms: C_11  and  C_12
    8  A    between atoms: C_12  and  C_13
    9  A    between atoms: C_13  and  C_14
   10  A    between atoms: C_14  and  O_15
   11  A    between atoms: C_14  and  C_16
   12  A    between atoms: C_16  and  C_17
   13  A    between atoms: C_17  and  C_18
   14  A    between atoms: C_17  and  C_19
   15  A    between atoms: C_22  and  O_23
                            x       y       z     vdW  Elec       q    Type
                         _______ _______ _______ _____ _____    ______ ____

>  <TORSDO>
F 12

>  <SCORE>
-6.121

>  <RMSD_LB>
1.909

>  <RMSD_UB>
3.324

$$$$
CHEMBL4634699
 OpenBabel10172500033D

 26 26  0  0  1  0  0  0  0  0999 V2000
  143.7160  136.7200  150.9090 N   0  0  0  0  0  0  0  0  0  0  0  0
  144.7910  136.1020  150.3170 C   0  0  0  0  0  0  0  0  0  0  0  0
  144.8010  135.6960  149.1600 O   0  0  0  0  0  0  0  0  0  0  0  0
  143.7900  137.0050  151.8480 H   0  0  0  0  0  0  0  0  0  0  0  0
  142.4840  136.9640  150.2020 C   0  0  0  0  0  2  0  0  0  0  0  0
  139.8540  139.5310  151.2640 C   0  0  0  0  0  0  0  0  0  0  0  0
  140.7280  138.7710  150.4800 C   0  0  0  0  0  3  0  0  0  0  0  0
  141.5000  137.7380  151.0470 C   0  0  0  0  0  0  0  0  0  0  0  0
  141.3790  137.4710  152.4170 C   0  0  0  0  0  3  0  0  0  0  0  0
  140.5150  138.2260  153.2110 C   0  0  0  0  0  3  0  0  0  0  0  0
  139.7630  139.2490  152.6340 C   0  0  0  0  0  0  0  0  0  0  0  0
  138.4950  140.4150  149.5120 C   0  0  0  0  0  1  0  0  0  0  0  0
  139.0690  140.5550  150.8040 O   0  0  0  0  0  0  0  0  0  0  0  0
  138.9270  139.9970  153.4190 O   0  0  0  0  0  0  0  0  0  0  0  0
  138.7350  140.8850  153.1860 H   0  0  0  0  0  0  0  0  0  0  0  0
  145.9920  135.9500  151.2290 C   0  0  0  0  0  2  0  0  0  0  0  0
  146.1200  137.0910  152.2400 C   0  0  0  0  0  2  0  0  0  0  0  0
  145.9150  136.6620  153.6980 C   0  0  0  0  0  2  0  0  0  0  0  0
  147.0500  137.1450  154.6010 C   0  0  0  0  0  2  0  0  0  0  0  0
  147.0000  138.6520  154.8640 C   0  0  1  0  0  3  0  0  0  0  0  0
  147.0600  138.8900  156.2740 O   0  0  0  0  0  0  0  0  0  0  0  0
  146.7660  138.0950  156.7470 H   0  0  0  0  0  0  0  0  0  0  0  0
  148.1690  139.3940  154.1970 C   0  0  0  0  0  2  0  0  0  0  0  0
  147.8220  140.7740  153.6060 C   0  0  0  0  0  3  0  0  0  0  0  0
  146.3150  141.0340  153.5920 C   0  0  0  0  0  1  0  0  0  0  0  0
  148.5400  141.8750  154.3880 C   0  0  0  0  0  1  0  0  0  0  0  0
  1  4  1  0  0  0  0
  2  1  1  0  0  0  0
  2 16  1  0  0  0  0
  3  2  2  0  0  0  0
  5  1  1  0  0  0  0
  5  8  1  0  0  0  0
  6 11  1  0  0  0  0
  7  8  1  0  0  0  0
  7  6  2  0  0  0  0
  8  9  2  0  0  0  0
  9 10  1  0  0  0  0
 11 10  2  0  0  0  0
 11 14  1  0  0  0  0
 12 13  1  0  0  0  0
 13  6  1  0  0  0  0
 15 14  1  0  0  0  0
 16 17  1  0  0  0  0
 17 18  1  0  0  0  0
 18 19  1  0  0  0  0
 19 20  1  0  0  0  0
 20 23  1  6  0  0  0
 20 21  1  0  0  0  0
 21 22  1  0  0  0  0
 24 23  1  0  0  0  0
 24 26  1  0  0  0  0
 25 24  1  0  0  0  0
M  END
>  <MODEL>
9

>  <REMARK>
 VINA RESULT:    -5.997      2.455      3.881
 INTER + INTRA:         -10.858
 INTER:                  -9.853
 INTRA:                  -1.005
 UNBOUND:                -1.005
  Name = CHEMBL4634699
  15 active torsions:
  status: ('A' for Active; 'I' for Inactive)
    1  A    between atoms: C_1  and  O_2
    2  A    between atoms: O_2  and  C_3
    3  A    between atoms: C_5  and  C_6
    4  A    between atoms: C_6  and  N_7
    5  A    between atoms: C_8  and  C_10
    6  A    between atoms: C_10  and  C_11
    7  A    between atoms: C_11  and  C_12
    8  A    between atoms: C_12  and  C_13
    9  A    between atoms: C_13  and  C_14
   10  A    between atoms: C_14  and  O_15
   11  A    between atoms: C_14  and  C_16
   12  A    between atoms: C_16  and  C_17
   13  A    between atoms: C_17  and  C_18
   14  A    between atoms: C_17  and  C_19
   15  A    between atoms: C_22  and  O_23
                            x       y       z     vdW  Elec       q    Type
                         _______ _______ _______ _____ _____    ______ ____

>  <TORSDO>
F 12

>  <SCORE>
-5.997

>  <RMSD_LB>
2.455

>  <RMSD_UB>
3.881

$$$$
