CHEMBL3786117
 OpenBabel10172500403D

 24 25  0  0  0  0  0  0  0  0999 V2000
  134.1150  135.1080  151.7740 C   0  0  0  0  0  3  0  0  0  0  0  0
  133.9160  134.3790  152.8850 C   0  0  0  0  0  3  0  0  0  0  0  0
  133.4330  134.9780  148.0310 C   0  0  0  0  0  0  0  0  0  0  0  0
  133.6350  135.4770  149.3240 C   0  0  0  0  0  3  0  0  0  0  0  0
  133.8890  134.6130  150.4050 C   0  0  0  0  0  0  0  0  0  0  0  0
  133.9800  133.2370  150.1590 C   0  0  0  0  0  3  0  0  0  0  0  0
  133.7850  132.7250  148.8740 C   0  0  0  0  0  3  0  0  0  0  0  0
  133.5070  133.5950  147.8210 C   0  0  0  0  0  0  0  0  0  0  0  0
  132.3810  136.9110  147.1080 C   0  0  0  0  0  1  0  0  0  0  0  0
  133.1690  135.7450  146.9250 O   0  0  0  0  0  0  0  0  0  0  0  0
  133.3060  133.0960  146.5610 O   0  0  0  0  0  0  0  0  0  0  0  0
  133.0600  133.6720  145.8640 H   0  0  0  0  0  0  0  0  0  0  0  0
  134.1720  134.9640  154.2290 C   0  0  0  0  0  0  0  0  0  0  0  0
  133.2760  135.2390  155.0130 O   0  0  0  0  0  0  0  0  0  0  0  0
  135.5110  135.1320  154.4850 N   0  0  0  0  0  0  0  0  0  0  0  0
  136.1630  134.8970  153.7850 H   0  0  0  0  0  0  0  0  0  0  0  0
  135.9930  135.6430  155.7480 C   0  0  0  0  0  2  0  0  0  0  0  0
  137.2340  136.4850  155.5850 C   0  0  0  0  0  0  0  0  0  0  0  0
  137.4620  137.1830  154.3880 C   0  0  0  0  0  3  0  0  0  0  0  0
  138.5910  137.9920  154.2420 C   0  0  0  0  0  3  0  0  0  0  0  0
  139.4990  138.0960  155.2880 C   0  0  0  0  0  0  0  0  0  0  0  0
  140.5780  138.8770  155.1520 F   0  0  0  0  0  0  0  0  0  0  0  0
  139.3040  137.4010  156.4750 C   0  0  0  0  0  3  0  0  0  0  0  0
  138.1740  136.5910  156.6230 C   0  0  0  0  0  3  0  0  0  0  0  0
  1  2  2  0  0  0  0
  2 13  1  0  0  0  0
  3  4  1  0  0  0  0
  4  5  2  0  0  0  0
  5  1  1  0  0  0  0
  6  5  1  0  0  0  0
  7  6  2  0  0  0  0
  8  3  2  0  0  0  0
  8  7  1  0  0  0  0
 10  9  1  0  0  0  0
 10  3  1  0  0  0  0
 11  8  1  0  0  0  0
 12 11  1  0  0  0  0
 13 15  1  0  0  0  0
 13 14  2  0  0  0  0
 15 17  1  0  0  0  0
 16 15  1  0  0  0  0
 18 17  1  0  0  0  0
 18 24  1  0  0  0  0
 19 18  2  0  0  0  0
 20 19  1  0  0  0  0
 20 21  2  0  0  0  0
 21 23  1  0  0  0  0
 22 21  1  0  0  0  0
 23 24  2  0  0  0  0
M  END
>  <MODEL>
1

>  <REMARK>
 VINA RESULT:    -7.632      0.000      0.000
 INTER + INTRA:         -10.638
 INTER:                 -10.136
 INTRA:                  -0.503
 UNBOUND:                -0.552
  Name = CHEMBL3786117
  7 active torsions:
  status: ('A' for Active; 'I' for Inactive)
    1  A    between atoms: C_1  and  O_2
    2  A    between atoms: O_2  and  C_3
    3  A    between atoms: C_5  and  C_6
    4  A    between atoms: C_7  and  C_8
    5  A    between atoms: N_10  and  C_11
    6  A    between atoms: C_11  and  C_12
    7  A    between atoms: C_21  and  O_22
                            x       y       z     vdW  Elec       q    Type
                         _______ _______ _______ _____ _____    ______ ____

>  <TORSDO>
F 6

>  <SCORE>
-7.632

>  <RMSD_LB>
0.000

>  <RMSD_UB>
0.000

$$$$
CHEMBL3786117
 OpenBabel10172500403D

 24 25  0  0  0  0  0  0  0  0999 V2000
  136.1830  135.4870  154.4780 C   0  0  0  0  0  3  0  0  0  0  0  0
  135.0300  134.9210  154.0840 C   0  0  0  0  0  3  0  0  0  0  0  0
  136.1130  136.1040  158.2340 C   0  0  0  0  0  0  0  0  0  0  0  0
  135.8780  135.5190  156.9840 C   0  0  0  0  0  3  0  0  0  0  0  0
  136.4030  136.0840  155.8070 C   0  0  0  0  0  0  0  0  0  0  0  0
  137.2080  137.2260  155.9100 C   0  0  0  0  0  3  0  0  0  0  0  0
  137.4540  137.8180  157.1510 C   0  0  0  0  0  3  0  0  0  0  0  0
  136.9020  137.2590  158.3020 C   0  0  0  0  0  0  0  0  0  0  0  0
  134.2850  135.9340  159.7590 C   0  0  0  0  0  1  0  0  0  0  0  0
  135.6310  135.6290  159.4270 O   0  0  0  0  0  0  0  0  0  0  0  0
  137.1330  137.8420  159.5200 O   0  0  0  0  0  0  0  0  0  0  0  0
  137.6000  138.6520  159.5710 H   0  0  0  0  0  0  0  0  0  0  0  0
  134.8990  134.3420  152.7190 C   0  0  0  0  0  0  0  0  0  0  0  0
  135.8640  134.0230  152.0400 O   0  0  0  0  0  0  0  0  0  0  0  0
  133.5890  134.1940  152.3320 N   0  0  0  0  0  0  0  0  0  0  0  0
  132.8760  134.4960  152.9410 H   0  0  0  0  0  0  0  0  0  0  0  0
  133.2260  133.6100  151.0620 C   0  0  0  0  0  2  0  0  0  0  0  0
  133.0100  134.6550  149.9950 C   0  0  0  0  0  0  0  0  0  0  0  0
  132.8020  135.9970  150.3540 C   0  0  0  0  0  3  0  0  0  0  0  0
  132.6360  136.9760  149.3710 C   0  0  0  0  0  3  0  0  0  0  0  0
  132.6660  136.6140  148.0310 C   0  0  0  0  0  0  0  0  0  0  0  0
  132.5140  137.5530  147.0890 F   0  0  0  0  0  0  0  0  0  0  0  0
  132.8520  135.2900  147.6530 C   0  0  0  0  0  3  0  0  0  0  0  0
  133.0190  134.3090  148.6340 C   0  0  0  0  0  3  0  0  0  0  0  0
  1  5  1  0  0  0  0
  2  1  2  0  0  0  0
  3  8  1  0  0  0  0
  3 10  1  0  0  0  0
  4  3  2  0  0  0  0
  5  6  2  0  0  0  0
  5  4  1  0  0  0  0
  6  7  1  0  0  0  0
  7  8  2  0  0  0  0
  8 11  1  0  0  0  0
 10  9  1  0  0  0  0
 11 12  1  0  0  0  0
 13  2  1  0  0  0  0
 14 13  2  0  0  0  0
 15 13  1  0  0  0  0
 15 16  1  0  0  0  0
 17 15  1  0  0  0  0
 18 19  1  0  0  0  0
 18 17  1  0  0  0  0
 20 19  2  0  0  0  0
 21 20  1  0  0  0  0
 22 21  1  0  0  0  0
 23 21  2  0  0  0  0
 23 24  1  0  0  0  0
 24 18  2  0  0  0  0
M  END
>  <MODEL>
2

>  <REMARK>
 VINA RESULT:    -7.573      3.530      8.870
 INTER + INTRA:         -10.560
 INTER:                 -10.121
 INTRA:                  -0.439
 UNBOUND:                -0.552
  Name = CHEMBL3786117
  7 active torsions:
  status: ('A' for Active; 'I' for Inactive)
    1  A    between atoms: C_1  and  O_2
    2  A    between atoms: O_2  and  C_3
    3  A    between atoms: C_5  and  C_6
    4  A    between atoms: C_7  and  C_8
    5  A    between atoms: N_10  and  C_11
    6  A    between atoms: C_11  and  C_12
    7  A    between atoms: C_21  and  O_22
                            x       y       z     vdW  Elec       q    Type
                         _______ _______ _______ _____ _____    ______ ____

>  <TORSDO>
F 6

>  <SCORE>
-7.573

>  <RMSD_LB>
3.530

>  <RMSD_UB>
8.870

$$$$
CHEMBL3786117
 OpenBabel10172500403D

 24 25  0  0  0  0  0  0  0  0999 V2000
  136.2490  136.2700  153.2910 C   0  0  0  0  0  3  0  0  0  0  0  0
  135.7740  135.1500  153.8620 C   0  0  0  0  0  3  0  0  0  0  0  0
  138.7440  137.9150  155.6490 C   0  0  0  0  0  0  0  0  0  0  0  0
  137.6480  137.1750  155.1860 C   0  0  0  0  0  3  0  0  0  0  0  0
  137.3860  137.0490  153.8100 C   0  0  0  0  0  0  0  0  0  0  0  0
  138.2690  137.6430  152.8990 C   0  0  0  0  0  3  0  0  0  0  0  0
  139.3680  138.3810  153.3470 C   0  0  0  0  0  3  0  0  0  0  0  0
  139.5950  138.5180  154.7140 C   0  0  0  0  0  0  0  0  0  0  0  0
  138.1020  137.7180  157.9390 C   0  0  0  0  0  1  0  0  0  0  0  0
  139.0660  138.0990  156.9690 O   0  0  0  0  0  0  0  0  0  0  0  0
  140.6660  139.2480  155.1580 O   0  0  0  0  0  0  0  0  0  0  0  0
  140.9290  139.1960  156.0550 H   0  0  0  0  0  0  0  0  0  0  0  0
  134.6180  134.4280  153.2670 C   0  0  0  0  0  0  0  0  0  0  0  0
  134.1910  133.3750  153.7180 O   0  0  0  0  0  0  0  0  0  0  0  0
  134.0870  135.0840  152.1830 N   0  0  0  0  0  0  0  0  0  0  0  0
  134.5080  135.9200  151.8800 H   0  0  0  0  0  0  0  0  0  0  0  0
  132.9290  134.5860  151.4760 C   0  0  0  0  0  2  0  0  0  0  0  0
  133.2670  134.1350  150.0760 C   0  0  0  0  0  0  0  0  0  0  0  0
  132.9590  134.9550  148.9780 C   0  0  0  0  0  3  0  0  0  0  0  0
  133.2990  134.5610  147.6820 C   0  0  0  0  0  3  0  0  0  0  0  0
  133.9380  133.3440  147.4810 C   0  0  0  0  0  0  0  0  0  0  0  0
  134.2700  132.9690  146.2390 F   0  0  0  0  0  0  0  0  0  0  0  0
  134.2360  132.5080  148.5500 C   0  0  0  0  0  3  0  0  0  0  0  0
  133.8970  132.9010  149.8480 C   0  0  0  0  0  3  0  0  0  0  0  0
  1  5  1  0  0  0  0
  1  2  2  0  0  0  0
  3 10  1  0  0  0  0
  4  3  1  0  0  0  0
  5  4  2  0  0  0  0
  6  7  2  0  0  0  0
  6  5  1  0  0  0  0
  7  8  1  0  0  0  0
  8 11  1  0  0  0  0
  8  3  2  0  0  0  0
 10  9  1  0  0  0  0
 11 12  1  0  0  0  0
 13 14  2  0  0  0  0
 13  2  1  0  0  0  0
 15 13  1  0  0  0  0
 16 15  1  0  0  0  0
 17 15  1  0  0  0  0
 18 17  1  0  0  0  0
 19 18  2  0  0  0  0
 20 19  1  0  0  0  0
 21 20  2  0  0  0  0
 21 23  1  0  0  0  0
 22 21  1  0  0  0  0
 23 24  2  0  0  0  0
 24 18  1  0  0  0  0
M  END
>  <MODEL>
3

>  <REMARK>
 VINA RESULT:    -7.425      3.718      8.468
 INTER + INTRA:         -10.364
 INTER:                  -9.827
 INTRA:                  -0.537
 UNBOUND:                -0.552
  Name = CHEMBL3786117
  7 active torsions:
  status: ('A' for Active; 'I' for Inactive)
    1  A    between atoms: C_1  and  O_2
    2  A    between atoms: O_2  and  C_3
    3  A    between atoms: C_5  and  C_6
    4  A    between atoms: C_7  and  C_8
    5  A    between atoms: N_10  and  C_11
    6  A    between atoms: C_11  and  C_12
    7  A    between atoms: C_21  and  O_22
                            x       y       z     vdW  Elec       q    Type
                         _______ _______ _______ _____ _____    ______ ____

>  <TORSDO>
F 6

>  <SCORE>
-7.425

>  <RMSD_LB>
3.718

>  <RMSD_UB>
8.468

$$$$
CHEMBL3786117
 OpenBabel10172500403D

 24 25  0  0  0  0  0  0  0  0999 V2000
  137.3110  137.0100  154.5220 C   0  0  0  0  0  3  0  0  0  0  0  0
  137.9660  138.0630  155.0400 C   0  0  0  0  0  3  0  0  0  0  0  0
  135.4590  135.2530  157.3450 C   0  0  0  0  0  0  0  0  0  0  0  0
  136.3990  136.0360  156.6640 C   0  0  0  0  0  3  0  0  0  0  0  0
  136.3430  136.1850  155.2660 C   0  0  0  0  0  0  0  0  0  0  0  0
  135.2990  135.5700  154.5630 C   0  0  0  0  0  3  0  0  0  0  0  0
  134.3520  134.7890  155.2310 C   0  0  0  0  0  3  0  0  0  0  0  0
  134.4400  134.6300  156.6120 C   0  0  0  0  0  0  0  0  0  0  0  0
  136.2140  135.9210  159.5080 C   0  0  0  0  0  1  0  0  0  0  0  0
  135.4450  135.0430  158.7000 O   0  0  0  0  0  0  0  0  0  0  0  0
  133.5180  133.8570  157.2690 O   0  0  0  0  0  0  0  0  0  0  0  0
  133.7840  133.0570  157.6770 H   0  0  0  0  0  0  0  0  0  0  0  0
  138.9270  138.8390  154.2110 C   0  0  0  0  0  0  0  0  0  0  0  0
  139.7510  139.6030  154.6930 O   0  0  0  0  0  0  0  0  0  0  0  0
  138.7940  138.5820  152.8690 N   0  0  0  0  0  0  0  0  0  0  0  0
  138.0900  137.9630  152.5700 H   0  0  0  0  0  0  0  0  0  0  0  0
  139.6560  139.1920  151.8820 C   0  0  0  0  0  2  0  0  0  0  0  0
  140.7360  138.2510  151.4080 C   0  0  0  0  0  0  0  0  0  0  0  0
  140.5600  137.5130  150.2260 C   0  0  0  0  0  3  0  0  0  0  0  0
  141.5690  136.6660  149.7620 C   0  0  0  0  0  3  0  0  0  0  0  0
  142.7500  136.5470  150.4850 C   0  0  0  0  0  0  0  0  0  0  0  0
  143.7200  135.7400  150.0370 F   0  0  0  0  0  0  0  0  0  0  0  0
  142.9380  137.2530  151.6660 C   0  0  0  0  0  3  0  0  0  0  0  0
  141.9300  138.1020  152.1320 C   0  0  0  0  0  3  0  0  0  0  0  0
  1  2  2  0  0  0  0
  1  5  1  0  0  0  0
  3 10  1  0  0  0  0
  4  3  1  0  0  0  0
  5  4  2  0  0  0  0
  6  7  2  0  0  0  0
  6  5  1  0  0  0  0
  7  8  1  0  0  0  0
  8 11  1  0  0  0  0
  8  3  2  0  0  0  0
 10  9  1  0  0  0  0
 11 12  1  0  0  0  0
 13 14  2  0  0  0  0
 13  2  1  0  0  0  0
 15 13  1  0  0  0  0
 16 15  1  0  0  0  0
 17 15  1  0  0  0  0
 18 17  1  0  0  0  0
 18 24  1  0  0  0  0
 19 18  2  0  0  0  0
 20 19  1  0  0  0  0
 20 21  2  0  0  0  0
 21 23  1  0  0  0  0
 22 21  1  0  0  0  0
 23 24  2  0  0  0  0
M  END
>  <MODEL>
4

>  <REMARK>
 VINA RESULT:    -7.280      5.298      7.480
 INTER + INTRA:         -10.173
 INTER:                  -9.611
 INTRA:                  -0.562
 UNBOUND:                -0.552
  Name = CHEMBL3786117
  7 active torsions:
  status: ('A' for Active; 'I' for Inactive)
    1  A    between atoms: C_1  and  O_2
    2  A    between atoms: O_2  and  C_3
    3  A    between atoms: C_5  and  C_6
    4  A    between atoms: C_7  and  C_8
    5  A    between atoms: N_10  and  C_11
    6  A    between atoms: C_11  and  C_12
    7  A    between atoms: C_21  and  O_22
                            x       y       z     vdW  Elec       q    Type
                         _______ _______ _______ _____ _____    ______ ____

>  <TORSDO>
F 6

>  <SCORE>
-7.280

>  <RMSD_LB>
5.298

>  <RMSD_UB>
7.480

$$$$
CHEMBL3786117
 OpenBabel10172500403D

 24 25  0  0  0  0  0  0  0  0999 V2000
  134.8180  135.8890  152.0910 C   0  0  0  0  0  3  0  0  0  0  0  0
  136.1550  135.9840  152.1740 C   0  0  0  0  0  3  0  0  0  0  0  0
  133.1480  135.5770  148.6840 C   0  0  0  0  0  0  0  0  0  0  0  0
  133.8300  136.1210  149.7800 C   0  0  0  0  0  3  0  0  0  0  0  0
  134.0940  135.3500  150.9260 C   0  0  0  0  0  0  0  0  0  0  0  0
  133.6990  134.0060  150.9390 C   0  0  0  0  0  3  0  0  0  0  0  0
  133.0220  133.4490  149.8510 C   0  0  0  0  0  3  0  0  0  0  0  0
  132.7450  134.2370  148.7360 C   0  0  0  0  0  0  0  0  0  0  0  0
  133.6650  137.3580  147.1810 C   0  0  0  0  0  1  0  0  0  0  0  0
  132.8390  136.2590  147.5340 O   0  0  0  0  0  0  0  0  0  0  0  0
  132.0730  133.6980  147.6710 O   0  0  0  0  0  0  0  0  0  0  0  0
  131.1700  133.9080  147.5320 H   0  0  0  0  0  0  0  0  0  0  0  0
  136.8000  136.5440  153.3920 C   0  0  0  0  0  0  0  0  0  0  0  0
  137.4990  137.5460  153.3700 O   0  0  0  0  0  0  0  0  0  0  0  0
  136.5030  135.8250  154.5240 N   0  0  0  0  0  0  0  0  0  0  0  0
  135.9440  135.0190  154.4430 H   0  0  0  0  0  0  0  0  0  0  0  0
  136.9870  136.2140  155.8290 C   0  0  0  0  0  2  0  0  0  0  0  0
  136.0800  135.7390  156.9380 C   0  0  0  0  0  0  0  0  0  0  0  0
  136.3890  136.0310  158.2760 C   0  0  0  0  0  3  0  0  0  0  0  0
  135.5370  135.6250  159.3060 C   0  0  0  0  0  3  0  0  0  0  0  0
  134.3820  134.9170  159.0000 C   0  0  0  0  0  0  0  0  0  0  0  0
  133.5610  134.5340  159.9870 F   0  0  0  0  0  0  0  0  0  0  0  0
  134.0650  134.6010  157.6850 C   0  0  0  0  0  3  0  0  0  0  0  0
  134.9160  135.0070  156.6530 C   0  0  0  0  0  3  0  0  0  0  0  0
  1  2  2  0  0  0  0
  2 13  1  0  0  0  0
  3  8  2  0  0  0  0
  3  4  1  0  0  0  0
  4  5  2  0  0  0  0
  5  6  1  0  0  0  0
  5  1  1  0  0  0  0
  7  6  2  0  0  0  0
  8  7  1  0  0  0  0
  9 10  1  0  0  0  0
 10  3  1  0  0  0  0
 11  8  1  0  0  0  0
 12 11  1  0  0  0  0
 13 15  1  0  0  0  0
 14 13  2  0  0  0  0
 15 17  1  0  0  0  0
 16 15  1  0  0  0  0
 17 18  1  0  0  0  0
 18 19  1  0  0  0  0
 19 20  2  0  0  0  0
 21 20  1  0  0  0  0
 21 22  1  0  0  0  0
 23 21  2  0  0  0  0
 24 18  2  0  0  0  0
 24 23  1  0  0  0  0
M  END
>  <MODEL>
5

>  <REMARK>
 VINA RESULT:    -7.278      2.887      3.782
 INTER + INTRA:         -10.170
 INTER:                  -9.681
 INTRA:                  -0.489
 UNBOUND:                -0.552
  Name = CHEMBL3786117
  7 active torsions:
  status: ('A' for Active; 'I' for Inactive)
    1  A    between atoms: C_1  and  O_2
    2  A    between atoms: O_2  and  C_3
    3  A    between atoms: C_5  and  C_6
    4  A    between atoms: C_7  and  C_8
    5  A    between atoms: N_10  and  C_11
    6  A    between atoms: C_11  and  C_12
    7  A    between atoms: C_21  and  O_22
                            x       y       z     vdW  Elec       q    Type
                         _______ _______ _______ _____ _____    ______ ____

>  <TORSDO>
F 6

>  <SCORE>
-7.278

>  <RMSD_LB>
2.887

>  <RMSD_UB>
3.782

$$$$
CHEMBL3786117
 OpenBabel10172500403D

 24 25  0  0  0  0  0  0  0  0999 V2000
  135.7380  136.2590  151.1320 C   0  0  0  0  0  3  0  0  0  0  0  0
  135.9220  135.9320  152.4220 C   0  0  0  0  0  3  0  0  0  0  0  0
  133.1260  135.6550  148.4300 C   0  0  0  0  0  0  0  0  0  0  0  0
  134.0330  136.3100  149.2720 C   0  0  0  0  0  3  0  0  0  0  0  0
  134.7700  135.6010  150.2390 C   0  0  0  0  0  0  0  0  0  0  0  0
  134.6140  134.2110  150.3180 C   0  0  0  0  0  3  0  0  0  0  0  0
  133.7160  133.5440  149.4810 C   0  0  0  0  0  3  0  0  0  0  0  0
  132.9740  134.2680  148.5490 C   0  0  0  0  0  0  0  0  0  0  0  0
  132.9860  137.2520  146.6620 C   0  0  0  0  0  1  0  0  0  0  0  0
  132.3600  136.2680  147.4720 O   0  0  0  0  0  0  0  0  0  0  0  0
  132.0850  133.6190  147.7330 O   0  0  0  0  0  0  0  0  0  0  0  0
  132.3990  133.0680  147.0440 H   0  0  0  0  0  0  0  0  0  0  0  0
  136.9260  136.6530  153.2500 C   0  0  0  0  0  0  0  0  0  0  0  0
  136.9770  136.5520  154.4680 O   0  0  0  0  0  0  0  0  0  0  0  0
  137.7850  137.4140  152.4950 N   0  0  0  0  0  0  0  0  0  0  0  0
  137.6580  137.4490  151.5200 H   0  0  0  0  0  0  0  0  0  0  0  0
  138.8680  138.1650  153.0870 C   0  0  0  0  0  2  0  0  0  0  0  0
  140.2030  137.8220  152.4720 C   0  0  0  0  0  0  0  0  0  0  0  0
  141.3790  137.9300  153.2320 C   0  0  0  0  0  3  0  0  0  0  0  0
  142.6140  137.5820  152.6800 C   0  0  0  0  0  3  0  0  0  0  0  0
  142.6760  137.1370  151.3660 C   0  0  0  0  0  0  0  0  0  0  0  0
  143.8600  136.7970  150.8390 F   0  0  0  0  0  0  0  0  0  0  0  0
  141.5280  137.0400  150.5890 C   0  0  0  0  0  3  0  0  0  0  0  0
  140.2920  137.3870  151.1390 C   0  0  0  0  0  3  0  0  0  0  0  0
  1  2  2  0  0  0  0
  2 13  1  0  0  0  0
  3  8  2  0  0  0  0
  3  4  1  0  0  0  0
  4  5  2  0  0  0  0
  5  6  1  0  0  0  0
  5  1  1  0  0  0  0
  7  6  2  0  0  0  0
  8  7  1  0  0  0  0
  9 10  1  0  0  0  0
 10  3  1  0  0  0  0
 11  8  1  0  0  0  0
 12 11  1  0  0  0  0
 13 14  2  0  0  0  0
 15 17  1  0  0  0  0
 15 13  1  0  0  0  0
 16 15  1  0  0  0  0
 18 17  1  0  0  0  0
 18 19  1  0  0  0  0
 20 19  2  0  0  0  0
 21 20  1  0  0  0  0
 22 21  1  0  0  0  0
 23 24  1  0  0  0  0
 23 21  2  0  0  0  0
 24 18  2  0  0  0  0
M  END
>  <MODEL>
6

>  <REMARK>
 VINA RESULT:    -7.264      2.847      3.552
 INTER + INTRA:         -10.152
 INTER:                  -9.601
 INTRA:                  -0.551
 UNBOUND:                -0.552
  Name = CHEMBL3786117
  7 active torsions:
  status: ('A' for Active; 'I' for Inactive)
    1  A    between atoms: C_1  and  O_2
    2  A    between atoms: O_2  and  C_3
    3  A    between atoms: C_5  and  C_6
    4  A    between atoms: C_7  and  C_8
    5  A    between atoms: N_10  and  C_11
    6  A    between atoms: C_11  and  C_12
    7  A    between atoms: C_21  and  O_22
                            x       y       z     vdW  Elec       q    Type
                         _______ _______ _______ _____ _____    ______ ____

>  <TORSDO>
F 6

>  <SCORE>
-7.264

>  <RMSD_LB>
2.847

>  <RMSD_UB>
3.552

$$$$
CHEMBL3786117
 OpenBabel10172500403D

 24 25  0  0  0  0  0  0  0  0999 V2000
  134.2560  134.6990  151.2870 C   0  0  0  0  0  3  0  0  0  0  0  0
  134.6020  133.8510  152.2700 C   0  0  0  0  0  3  0  0  0  0  0  0
  135.0010  133.9640  147.6280 C   0  0  0  0  0  0  0  0  0  0  0  0
  135.1750  134.3450  148.9640 C   0  0  0  0  0  3  0  0  0  0  0  0
  134.1020  134.3150  149.8730 C   0  0  0  0  0  0  0  0  0  0  0  0
  132.8570  133.8520  149.4300 C   0  0  0  0  0  3  0  0  0  0  0  0
  132.6700  133.4640  148.1010 C   0  0  0  0  0  3  0  0  0  0  0  0
  133.7380  133.5280  147.2080 C   0  0  0  0  0  0  0  0  0  0  0  0
  136.9940  132.9780  146.7590 C   0  0  0  0  0  1  0  0  0  0  0  0
  135.9860  133.9740  146.6730 O   0  0  0  0  0  0  0  0  0  0  0  0
  133.5560  133.1580  145.9010 O   0  0  0  0  0  0  0  0  0  0  0  0
  133.2230  132.3060  145.6980 H   0  0  0  0  0  0  0  0  0  0  0  0
  134.7330  134.3310  153.6720 C   0  0  0  0  0  0  0  0  0  0  0  0
  134.0980  133.8490  154.5990 O   0  0  0  0  0  0  0  0  0  0  0  0
  135.6510  135.3450  153.8000 N   0  0  0  0  0  0  0  0  0  0  0  0
  136.1050  135.6810  152.9930 H   0  0  0  0  0  0  0  0  0  0  0  0
  135.9720  135.9320  155.0810 C   0  0  0  0  0  2  0  0  0  0  0  0
  137.2290  136.7660  155.0260 C   0  0  0  0  0  0  0  0  0  0  0  0
  138.0070  136.9440  156.1810 C   0  0  0  0  0  3  0  0  0  0  0  0
  139.1900  137.6860  156.1310 C   0  0  0  0  0  3  0  0  0  0  0  0
  139.5890  138.2590  154.9310 C   0  0  0  0  0  0  0  0  0  0  0  0
  140.7270  138.9650  154.8810 F   0  0  0  0  0  0  0  0  0  0  0  0
  138.8250  138.1120  153.7800 C   0  0  0  0  0  3  0  0  0  0  0  0
  137.6420  137.3690  153.8270 C   0  0  0  0  0  3  0  0  0  0  0  0
  1  2  2  0  0  0  0
  2 13  1  0  0  0  0
  3  4  1  0  0  0  0
  4  5  2  0  0  0  0
  5  1  1  0  0  0  0
  6  5  1  0  0  0  0
  7  6  2  0  0  0  0
  8  3  2  0  0  0  0
  8  7  1  0  0  0  0
 10  9  1  0  0  0  0
 10  3  1  0  0  0  0
 11  8  1  0  0  0  0
 12 11  1  0  0  0  0
 13 15  1  0  0  0  0
 13 14  2  0  0  0  0
 15 17  1  0  0  0  0
 16 15  1  0  0  0  0
 18 17  1  0  0  0  0
 18 19  1  0  0  0  0
 20 19  2  0  0  0  0
 21 20  1  0  0  0  0
 22 21  1  0  0  0  0
 23 24  1  0  0  0  0
 23 21  2  0  0  0  0
 24 18  2  0  0  0  0
M  END
>  <MODEL>
7

>  <REMARK>
 VINA RESULT:    -7.164      1.356      2.053
 INTER + INTRA:         -10.020
 INTER:                  -9.564
 INTRA:                  -0.456
 UNBOUND:                -0.552
  Name = CHEMBL3786117
  7 active torsions:
  status: ('A' for Active; 'I' for Inactive)
    1  A    between atoms: C_1  and  O_2
    2  A    between atoms: O_2  and  C_3
    3  A    between atoms: C_5  and  C_6
    4  A    between atoms: C_7  and  C_8
    5  A    between atoms: N_10  and  C_11
    6  A    between atoms: C_11  and  C_12
    7  A    between atoms: C_21  and  O_22
                            x       y       z     vdW  Elec       q    Type
                         _______ _______ _______ _____ _____    ______ ____

>  <TORSDO>
F 6

>  <SCORE>
-7.164

>  <RMSD_LB>
1.356

>  <RMSD_UB>
2.053

$$$$
CHEMBL3786117
 OpenBabel10172500403D

 24 25  0  0  0  0  0  0  0  0999 V2000
  136.3110  135.4080  150.3920 C   0  0  0  0  0  3  0  0  0  0  0  0
  135.8790  136.2010  151.3870 C   0  0  0  0  0  3  0  0  0  0  0  0
  134.5560  134.5330  147.1300 C   0  0  0  0  0  0  0  0  0  0  0  0
  135.3960  135.1680  148.0530 C   0  0  0  0  0  3  0  0  0  0  0  0
  135.4310  134.7660  149.4000 C   0  0  0  0  0  0  0  0  0  0  0  0
  134.6390  133.6820  149.8000 C   0  0  0  0  0  3  0  0  0  0  0  0
  133.8000  133.0360  148.8890 C   0  0  0  0  0  3  0  0  0  0  0  0
  133.7580  133.4670  147.5650 C   0  0  0  0  0  0  0  0  0  0  0  0
  135.5670  134.6050  144.9690 C   0  0  0  0  0  1  0  0  0  0  0  0
  134.4490  134.8670  145.8040 O   0  0  0  0  0  0  0  0  0  0  0  0
  132.9290  132.8420  146.6710 O   0  0  0  0  0  0  0  0  0  0  0  0
  132.0070  132.8050  146.8340 H   0  0  0  0  0  0  0  0  0  0  0  0
  136.8430  136.8070  152.3450 C   0  0  0  0  0  0  0  0  0  0  0  0
  136.7620  136.6510  153.5540 O   0  0  0  0  0  0  0  0  0  0  0  0
  137.8270  137.5310  151.7170 N   0  0  0  0  0  0  0  0  0  0  0  0
  137.8030  137.6170  150.7360 H   0  0  0  0  0  0  0  0  0  0  0  0
  138.8960  138.1700  152.4500 C   0  0  0  0  0  2  0  0  0  0  0  0
  140.2580  137.7340  151.9680 C   0  0  0  0  0  0  0  0  0  0  0  0
  140.4230  137.2560  150.6580 C   0  0  0  0  0  3  0  0  0  0  0  0
  141.6860  136.8830  150.1930 C   0  0  0  0  0  3  0  0  0  0  0  0
  142.7830  136.9750  151.0410 C   0  0  0  0  0  0  0  0  0  0  0  0
  143.9950  136.6240  150.5930 F   0  0  0  0  0  0  0  0  0  0  0  0
  142.6400  137.4270  152.3470 C   0  0  0  0  0  3  0  0  0  0  0  0
  141.3770  137.8020  152.8130 C   0  0  0  0  0  3  0  0  0  0  0  0
  1  2  2  0  0  0  0
  2 13  1  0  0  0  0
  3  8  2  0  0  0  0
  3  4  1  0  0  0  0
  4  5  2  0  0  0  0
  5  6  1  0  0  0  0
  5  1  1  0  0  0  0
  7  6  2  0  0  0  0
  8  7  1  0  0  0  0
  9 10  1  0  0  0  0
 10  3  1  0  0  0  0
 11 12  1  0  0  0  0
 11  8  1  0  0  0  0
 13 14  2  0  0  0  0
 15 13  1  0  0  0  0
 15 17  1  0  0  0  0
 16 15  1  0  0  0  0
 18 17  1  0  0  0  0
 18 24  1  0  0  0  0
 19 18  2  0  0  0  0
 20 19  1  0  0  0  0
 20 21  2  0  0  0  0
 21 23  1  0  0  0  0
 22 21  1  0  0  0  0
 23 24  2  0  0  0  0
M  END
>  <MODEL>
8

>  <REMARK>
 VINA RESULT:    -6.975      3.226      3.827
 INTER + INTRA:          -9.770
 INTER:                  -9.217
 INTRA:                  -0.552
 UNBOUND:                -0.552
  Name = CHEMBL3786117
  7 active torsions:
  status: ('A' for Active; 'I' for Inactive)
    1  A    between atoms: C_1  and  O_2
    2  A    between atoms: O_2  and  C_3
    3  A    between atoms: C_5  and  C_6
    4  A    between atoms: C_7  and  C_8
    5  A    between atoms: N_10  and  C_11
    6  A    between atoms: C_11  and  C_12
    7  A    between atoms: C_21  and  O_22
                            x       y       z     vdW  Elec       q    Type
                         _______ _______ _______ _____ _____    ______ ____

>  <TORSDO>
F 6

>  <SCORE>
-6.975

>  <RMSD_LB>
3.226

>  <RMSD_UB>
3.827

$$$$
CHEMBL3786117
 OpenBabel10172500403D

 24 25  0  0  0  0  0  0  0  0999 V2000
  139.7730  138.0960  153.9280 C   0  0  0  0  0  3  0  0  0  0  0  0
  139.1840  138.3980  155.0970 C   0  0  0  0  0  3  0  0  0  0  0  0
  143.1470  138.1640  152.1660 C   0  0  0  0  0  0  0  0  0  0  0  0
  141.7890  137.9310  152.4190 C   0  0  0  0  0  3  0  0  0  0  0  0
  141.2000  138.3170  153.6370 C   0  0  0  0  0  0  0  0  0  0  0  0
  141.9880  138.9840  154.5840 C   0  0  0  0  0  3  0  0  0  0  0  0
  143.3430  139.2260  154.3440 C   0  0  0  0  0  3  0  0  0  0  0  0
  143.9150  138.8110  153.1430 C   0  0  0  0  0  0  0  0  0  0  0  0
  143.4330  136.5880  150.3970 C   0  0  0  0  0  1  0  0  0  0  0  0
  143.8040  137.8110  151.0150 O   0  0  0  0  0  0  0  0  0  0  0  0
  145.2450  139.0380  152.9080 O   0  0  0  0  0  0  0  0  0  0  0  0
  145.7910  138.3440  152.5960 H   0  0  0  0  0  0  0  0  0  0  0  0
  137.7330  138.1380  155.3020 C   0  0  0  0  0  0  0  0  0  0  0  0
  136.9400  139.0170  155.6070 O   0  0  0  0  0  0  0  0  0  0  0  0
  137.3960  136.8240  155.0890 N   0  0  0  0  0  0  0  0  0  0  0  0
  138.1070  136.1810  154.8620 H   0  0  0  0  0  0  0  0  0  0  0  0
  136.0330  136.3550  155.1890 C   0  0  0  0  0  2  0  0  0  0  0  0
  135.6170  135.5510  153.9810 C   0  0  0  0  0  0  0  0  0  0  0  0
  134.7090  134.4880  154.1200 C   0  0  0  0  0  3  0  0  0  0  0  0
  134.2930  133.7610  153.0030 C   0  0  0  0  0  3  0  0  0  0  0  0
  134.7910  134.0870  151.7480 C   0  0  0  0  0  0  0  0  0  0  0  0
  134.3870  133.3950  150.6760 F   0  0  0  0  0  0  0  0  0  0  0  0
  135.7050  135.1220  151.5890 C   0  0  0  0  0  3  0  0  0  0  0  0
  136.1220  135.8510  152.7060 C   0  0  0  0  0  3  0  0  0  0  0  0
  1  2  2  0  0  0  0
  2 13  1  0  0  0  0
  3  4  2  0  0  0  0
  3  8  1  0  0  0  0
  4  5  1  0  0  0  0
  5  1  1  0  0  0  0
  5  6  2  0  0  0  0
  7  6  1  0  0  0  0
  8  7  2  0  0  0  0
  9 10  1  0  0  0  0
 10  3  1  0  0  0  0
 11  8  1  0  0  0  0
 12 11  1  0  0  0  0
 13 14  2  0  0  0  0
 15 17  1  0  0  0  0
 15 13  1  0  0  0  0
 16 15  1  0  0  0  0
 18 19  1  0  0  0  0
 18 17  1  0  0  0  0
 20 19  2  0  0  0  0
 21 20  1  0  0  0  0
 22 21  1  0  0  0  0
 23 21  2  0  0  0  0
 23 24  1  0  0  0  0
 24 18  2  0  0  0  0
M  END
>  <MODEL>
9

>  <REMARK>
 VINA RESULT:    -6.939      5.080      8.594
 INTER + INTRA:          -9.722
 INTER:                  -9.147
 INTRA:                  -0.575
 UNBOUND:                -0.552
  Name = CHEMBL3786117
  7 active torsions:
  status: ('A' for Active; 'I' for Inactive)
    1  A    between atoms: C_1  and  O_2
    2  A    between atoms: O_2  and  C_3
    3  A    between atoms: C_5  and  C_6
    4  A    between atoms: C_7  and  C_8
    5  A    between atoms: N_10  and  C_11
    6  A    between atoms: C_11  and  C_12
    7  A    between atoms: C_21  and  O_22
                            x       y       z     vdW  Elec       q    Type
                         _______ _______ _______ _____ _____    ______ ____

>  <TORSDO>
F 6

>  <SCORE>
-6.939

>  <RMSD_LB>
5.080

>  <RMSD_UB>
8.594

$$$$
