CHEMBL1834919
 OpenBabel10172500263D

 23 24  0  0  0  0  0  0  0  0999 V2000
  135.4400  134.3760  152.6040 C   0  0  0  0  0  2  0  0  0  0  0  0
  134.0020  134.0800  152.1640 C   0  0  0  0  0  2  0  0  0  0  0  0
  133.6680  133.5230  147.7670 C   0  0  0  0  0  0  0  0  0  0  0  0
  133.3610  134.7010  148.3350 C   0  0  0  0  0  3  0  0  0  0  0  0
  133.4300  134.9500  149.7950 C   0  0  0  0  0  0  0  0  0  0  0  0
  133.1540  136.0710  150.2160 O   0  0  0  0  0  0  0  0  0  0  0  0
  133.8600  133.8410  150.6720 C   0  0  0  0  0  0  0  0  0  0  0  0
  134.1830  132.6620  150.1060 C   0  0  0  0  0  3  0  0  0  0  0  0
  134.1070  132.4030  148.6560 C   0  0  0  0  0  0  0  0  0  0  0  0
  134.4170  131.2950  148.2310 O   0  0  0  0  0  0  0  0  0  0  0  0
  134.5470  133.8970  145.5730 C   0  0  0  0  0  1  0  0  0  0  0  0
  133.5980  133.2490  146.4150 O   0  0  0  0  0  0  0  0  0  0  0  0
  135.5930  135.7680  153.2370 C   0  0  0  0  0  2  0  0  0  0  0  0
  135.6760  135.6760  154.7450 C   0  0  0  0  0  0  0  0  0  0  0  0
  134.7540  134.9030  155.4550 C   0  0  0  0  0  3  0  0  0  0  0  0
  134.8500  134.7870  156.8420 C   0  0  0  0  0  3  0  0  0  0  0  0
  135.8740  135.4370  157.5380 C   0  0  0  0  0  0  0  0  0  0  0  0
  136.8020  136.2270  156.8510 C   0  0  0  0  0  0  0  0  0  0  0  0
  136.6940  136.3330  155.4550 C   0  0  0  0  0  3  0  0  0  0  0  0
  135.9290  135.2770  158.8950 O   0  0  0  0  0  0  0  0  0  0  0  0
  135.4100  134.6160  159.3100 H   0  0  0  0  0  0  0  0  0  0  0  0
  137.8490  136.9470  157.3670 O   0  0  0  0  0  0  0  0  0  0  0  0
  138.6970  137.6360  156.4590 C   0  0  0  0  0  1  0  0  0  0  0  0
  1 13  1  0  0  0  0
  2  1  1  0  0  0  0
  3  4  2  0  0  0  0
  3  9  1  0  0  0  0
  4  5  1  0  0  0  0
  5  6  2  0  0  0  0
  5  7  1  0  0  0  0
  7  2  1  0  0  0  0
  8  7  2  0  0  0  0
  9  8  1  0  0  0  0
 10  9  2  0  0  0  0
 11 12  1  0  0  0  0
 12  3  1  0  0  0  0
 13 14  1  0  0  0  0
 14 15  2  0  0  0  0
 14 19  1  0  0  0  0
 15 16  1  0  0  0  0
 16 17  2  0  0  0  0
 17 20  1  0  0  0  0
 18 22  1  0  0  0  0
 18 17  1  0  0  0  0
 19 18  2  0  0  0  0
 20 21  1  0  0  0  0
 23 22  1  0  0  0  0
M  END
>  <MODEL>
1

>  <REMARK>
 VINA RESULT:    -6.993      0.000      0.000
 INTER + INTRA:         -10.235
 INTER:                  -9.710
 INTRA:                  -0.525
 UNBOUND:                -0.585
  Name = CHEMBL1834919
  9 active torsions:
  status: ('A' for Active; 'I' for Inactive)
    1  A    between atoms: C_1  and  O_2
    2  A    between atoms: O_2  and  C_3
    3  A    between atoms: C_7  and  C_8
    4  A    between atoms: C_8  and  C_9
    5  A    between atoms: C_9  and  C_10
    6  A    between atoms: C_10  and  C_11
    7  A    between atoms: C_14  and  O_15
    8  A    between atoms: C_16  and  O_17
    9  A    between atoms: O_17  and  C_18
                            x       y       z     vdW  Elec       q    Type
                         _______ _______ _______ _____ _____    ______ ____

>  <TORSDO>
F 7

>  <SCORE>
-6.993

>  <RMSD_LB>
0.000

>  <RMSD_UB>
0.000

$$$$
CHEMBL1834919
 OpenBabel10172500263D

 23 24  0  0  0  0  0  0  0  0999 V2000
  144.8390  140.5560  150.0700 C   0  0  0  0  0  2  0  0  0  0  0  0
  144.9020  139.2190  150.8170 C   0  0  0  0  0  2  0  0  0  0  0  0
  141.3470  138.2710  153.3110 C   0  0  0  0  0  0  0  0  0  0  0  0
  141.4110  137.8760  152.0290 C   0  0  0  0  0  3  0  0  0  0  0  0
  142.5560  138.1750  151.1340 C   0  0  0  0  0  0  0  0  0  0  0  0
  142.5330  137.7460  149.9840 O   0  0  0  0  0  0  0  0  0  0  0  0
  143.6870  138.9500  151.6860 C   0  0  0  0  0  0  0  0  0  0  0  0
  143.6340  139.3360  152.9760 C   0  0  0  0  0  3  0  0  0  0  0  0
  142.4950  139.0520  153.8680 C   0  0  0  0  0  0  0  0  0  0  0  0
  142.5330  139.4490  155.0280 O   0  0  0  0  0  0  0  0  0  0  0  0
  139.1870  138.9260  154.1060 C   0  0  0  0  0  1  0  0  0  0  0  0
  140.2910  138.0280  154.1680 O   0  0  0  0  0  0  0  0  0  0  0  0
  145.0370  141.7650  150.9990 C   0  0  0  0  0  2  0  0  0  0  0  0
  146.4830  141.8950  151.4230 C   0  0  0  0  0  0  0  0  0  0  0  0
  147.4390  142.3850  150.5300 C   0  0  0  0  0  3  0  0  0  0  0  0
  148.7660  142.5400  150.9290 C   0  0  0  0  0  3  0  0  0  0  0  0
  149.1560  142.2130  152.2330 C   0  0  0  0  0  0  0  0  0  0  0  0
  148.2210  141.7090  153.1430 C   0  0  0  0  0  0  0  0  0  0  0  0
  146.8880  141.5600  152.7260 C   0  0  0  0  0  3  0  0  0  0  0  0
  150.4660  142.3990  152.5750 O   0  0  0  0  0  0  0  0  0  0  0  0
  150.6860  142.7560  153.4140 H   0  0  0  0  0  0  0  0  0  0  0  0
  148.4260  141.3200  154.4410 O   0  0  0  0  0  0  0  0  0  0  0  0
  148.1560  139.9680  154.7840 C   0  0  0  0  0  1  0  0  0  0  0  0
  1  2  1  0  0  0  0
  1 13  1  0  0  0  0
  2  7  1  0  0  0  0
  3  9  1  0  0  0  0
  3 12  1  0  0  0  0
  4  3  2  0  0  0  0
  5  7  1  0  0  0  0
  5  4  1  0  0  0  0
  6  5  2  0  0  0  0
  7  8  2  0  0  0  0
  8  9  1  0  0  0  0
  9 10  2  0  0  0  0
 11 12  1  0  0  0  0
 13 14  1  0  0  0  0
 14 19  1  0  0  0  0
 15 16  1  0  0  0  0
 15 14  2  0  0  0  0
 16 17  2  0  0  0  0
 17 20  1  0  0  0  0
 17 18  1  0  0  0  0
 18 22  1  0  0  0  0
 19 18  2  0  0  0  0
 20 21  1  0  0  0  0
 22 23  1  0  0  0  0
M  END
>  <MODEL>
2

>  <REMARK>
 VINA RESULT:    -6.795      9.017     12.486
 INTER + INTRA:          -9.962
 INTER:                  -9.149
 INTRA:                  -0.812
 UNBOUND:                -0.585
  Name = CHEMBL1834919
  9 active torsions:
  status: ('A' for Active; 'I' for Inactive)
    1  A    between atoms: C_1  and  O_2
    2  A    between atoms: O_2  and  C_3
    3  A    between atoms: C_7  and  C_8
    4  A    between atoms: C_8  and  C_9
    5  A    between atoms: C_9  and  C_10
    6  A    between atoms: C_10  and  C_11
    7  A    between atoms: C_14  and  O_15
    8  A    between atoms: C_16  and  O_17
    9  A    between atoms: O_17  and  C_18
                            x       y       z     vdW  Elec       q    Type
                         _______ _______ _______ _____ _____    ______ ____

>  <TORSDO>
F 7

>  <SCORE>
-6.795

>  <RMSD_LB>
9.017

>  <RMSD_UB>
12.486

$$$$
CHEMBL1834919
 OpenBabel10172500263D

 23 24  0  0  0  0  0  0  0  0999 V2000
  143.9060  138.1890  153.8140 C   0  0  0  0  0  2  0  0  0  0  0  0
  142.5130  138.4400  154.4030 C   0  0  0  0  0  2  0  0  0  0  0  0
  139.1430  137.7200  151.5960 C   0  0  0  0  0  0  0  0  0  0  0  0
  138.9290  138.2890  152.7930 C   0  0  0  0  0  3  0  0  0  0  0  0
  140.0030  138.5400  153.7860 C   0  0  0  0  0  0  0  0  0  0  0  0
  139.7100  139.0910  154.8440 O   0  0  0  0  0  0  0  0  0  0  0  0
  141.3820  138.1400  153.4370 C   0  0  0  0  0  0  0  0  0  0  0  0
  141.6040  137.5830  152.2300 C   0  0  0  0  0  3  0  0  0  0  0  0
  140.5410  137.3210  151.2430 C   0  0  0  0  0  0  0  0  0  0  0  0
  140.8380  136.8030  150.1710 O   0  0  0  0  0  0  0  0  0  0  0  0
  137.8010  138.5200  149.7830 C   0  0  0  0  0  1  0  0  0  0  0  0
  138.1680  137.4540  150.6550 O   0  0  0  0  0  0  0  0  0  0  0  0
  144.9230  139.2700  154.2120 C   0  0  0  0  0  2  0  0  0  0  0  0
  145.1250  140.2680  153.0930 C   0  0  0  0  0  0  0  0  0  0  0  0
  145.9560  141.3760  153.2790 C   0  0  0  0  0  3  0  0  0  0  0  0
  146.1720  142.2790  152.2380 C   0  0  0  0  0  3  0  0  0  0  0  0
  145.5650  142.0830  150.9930 C   0  0  0  0  0  0  0  0  0  0  0  0
  144.7180  140.9890  150.7860 C   0  0  0  0  0  0  0  0  0  0  0  0
  144.5120  140.0880  151.8430 C   0  0  0  0  0  3  0  0  0  0  0  0
  145.8230  142.9910  150.0040 O   0  0  0  0  0  0  0  0  0  0  0  0
  145.7940  143.9090  150.1910 H   0  0  0  0  0  0  0  0  0  0  0  0
  144.0280  140.6530  149.6500 O   0  0  0  0  0  0  0  0  0  0  0  0
  143.7190  139.2840  149.4360 C   0  0  0  0  0  1  0  0  0  0  0  0
  1 13  1  0  0  0  0
  1  2  1  0  0  0  0
  3  4  2  0  0  0  0
  4  5  1  0  0  0  0
  5  6  2  0  0  0  0
  7  5  1  0  0  0  0
  7  2  1  0  0  0  0
  8  7  2  0  0  0  0
  9  3  1  0  0  0  0
  9  8  1  0  0  0  0
 10  9  2  0  0  0  0
 11 12  1  0  0  0  0
 12  3  1  0  0  0  0
 14 15  1  0  0  0  0
 14 13  1  0  0  0  0
 16 15  2  0  0  0  0
 17 16  1  0  0  0  0
 18 17  2  0  0  0  0
 18 19  1  0  0  0  0
 19 14  2  0  0  0  0
 20 21  1  0  0  0  0
 20 17  1  0  0  0  0
 22 18  1  0  0  0  0
 23 22  1  0  0  0  0
M  END
>  <MODEL>
3

>  <REMARK>
 VINA RESULT:    -6.740      7.244     10.188
 INTER + INTRA:          -9.885
 INTER:                  -8.937
 INTRA:                  -0.949
 UNBOUND:                -0.585
  Name = CHEMBL1834919
  9 active torsions:
  status: ('A' for Active; 'I' for Inactive)
    1  A    between atoms: C_1  and  O_2
    2  A    between atoms: O_2  and  C_3
    3  A    between atoms: C_7  and  C_8
    4  A    between atoms: C_8  and  C_9
    5  A    between atoms: C_9  and  C_10
    6  A    between atoms: C_10  and  C_11
    7  A    between atoms: C_14  and  O_15
    8  A    between atoms: C_16  and  O_17
    9  A    between atoms: O_17  and  C_18
                            x       y       z     vdW  Elec       q    Type
                         _______ _______ _______ _____ _____    ______ ____

>  <TORSDO>
F 7

>  <SCORE>
-6.740

>  <RMSD_LB>
7.244

>  <RMSD_UB>
10.188

$$$$
CHEMBL1834919
 OpenBabel10172500263D

 23 24  0  0  0  0  0  0  0  0999 V2000
  143.6120  137.0390  151.7160 C   0  0  0  0  0  2  0  0  0  0  0  0
  142.2050  137.3730  151.2060 C   0  0  0  0  0  2  0  0  0  0  0  0
  139.3180  138.5270  154.3830 C   0  0  0  0  0  0  0  0  0  0  0  0
  138.8870  138.1360  153.1720 C   0  0  0  0  0  3  0  0  0  0  0  0
  139.7940  137.7580  152.0610 C   0  0  0  0  0  0  0  0  0  0  0  0
  139.3010  137.3890  150.9980 O   0  0  0  0  0  0  0  0  0  0  0  0
  141.2500  137.8140  152.3010 C   0  0  0  0  0  0  0  0  0  0  0  0
  141.6880  138.1900  153.5180 C   0  0  0  0  0  3  0  0  0  0  0  0
  140.7940  138.5780  154.6240 C   0  0  0  0  0  0  0  0  0  0  0  0
  141.2840  138.9130  155.6980 O   0  0  0  0  0  0  0  0  0  0  0  0
  137.3700  138.0870  155.7010 C   0  0  0  0  0  1  0  0  0  0  0  0
  138.5070  138.9040  155.4350 O   0  0  0  0  0  0  0  0  0  0  0  0
  144.7010  137.9030  151.0620 C   0  0  0  0  0  2  0  0  0  0  0  0
  145.1200  139.0360  151.9730 C   0  0  0  0  0  0  0  0  0  0  0  0
  145.4460  138.7830  153.3080 C   0  0  0  0  0  3  0  0  0  0  0  0
  145.8660  139.8190  154.1410 C   0  0  0  0  0  3  0  0  0  0  0  0
  145.9740  141.1240  153.6490 C   0  0  0  0  0  0  0  0  0  0  0  0
  145.6420  141.4060  152.3200 C   0  0  0  0  0  0  0  0  0  0  0  0
  145.2210  140.3520  151.4930 C   0  0  0  0  0  3  0  0  0  0  0  0
  146.4060  142.0980  154.5060 O   0  0  0  0  0  0  0  0  0  0  0  0
  146.3450  141.9690  155.4320 H   0  0  0  0  0  0  0  0  0  0  0  0
  145.6670  142.6170  151.6780 O   0  0  0  0  0  0  0  0  0  0  0  0
  145.9750  142.6320  150.2910 C   0  0  0  0  0  1  0  0  0  0  0  0
  2  1  1  0  0  0  0
  2  7  1  0  0  0  0
  3  9  1  0  0  0  0
  3 12  1  0  0  0  0
  4  3  2  0  0  0  0
  5  7  1  0  0  0  0
  5  4  1  0  0  0  0
  6  5  2  0  0  0  0
  7  8  2  0  0  0  0
  8  9  1  0  0  0  0
  9 10  2  0  0  0  0
 12 11  1  0  0  0  0
 13  1  1  0  0  0  0
 13 14  1  0  0  0  0
 14 15  1  0  0  0  0
 15 16  2  0  0  0  0
 17 16  1  0  0  0  0
 17 20  1  0  0  0  0
 18 17  2  0  0  0  0
 19 14  2  0  0  0  0
 19 18  1  0  0  0  0
 20 21  1  0  0  0  0
 22 18  1  0  0  0  0
 23 22  1  0  0  0  0
M  END
>  <MODEL>
4

>  <REMARK>
 VINA RESULT:    -6.738      6.965     10.478
 INTER + INTRA:          -9.883
 INTER:                  -8.879
 INTRA:                  -1.004
 UNBOUND:                -0.585
  Name = CHEMBL1834919
  9 active torsions:
  status: ('A' for Active; 'I' for Inactive)
    1  A    between atoms: C_1  and  O_2
    2  A    between atoms: O_2  and  C_3
    3  A    between atoms: C_7  and  C_8
    4  A    between atoms: C_8  and  C_9
    5  A    between atoms: C_9  and  C_10
    6  A    between atoms: C_10  and  C_11
    7  A    between atoms: C_14  and  O_15
    8  A    between atoms: C_16  and  O_17
    9  A    between atoms: O_17  and  C_18
                            x       y       z     vdW  Elec       q    Type
                         _______ _______ _______ _____ _____    ______ ____

>  <TORSDO>
F 7

>  <SCORE>
-6.738

>  <RMSD_LB>
6.965

>  <RMSD_UB>
10.478

$$$$
CHEMBL1834919
 OpenBabel10172500263D

 23 24  0  0  0  0  0  0  0  0999 V2000
  142.4750  136.6130  150.2990 C   0  0  0  0  0  2  0  0  0  0  0  0
  143.1480  137.4500  149.2050 C   0  0  0  0  0  2  0  0  0  0  0  0
  145.6790  140.7010  150.8730 C   0  0  0  0  0  0  0  0  0  0  0  0
  144.4750  140.9720  150.3420 C   0  0  0  0  0  3  0  0  0  0  0  0
  143.5880  139.9410  149.7500 C   0  0  0  0  0  0  0  0  0  0  0  0
  142.4930  140.2850  149.3130 O   0  0  0  0  0  0  0  0  0  0  0  0
  144.0570  138.5390  149.7450 C   0  0  0  0  0  0  0  0  0  0  0  0
  145.2560  138.2600  150.2910 C   0  0  0  0  0  3  0  0  0  0  0  0
  146.1480  139.2800  150.8710 C   0  0  0  0  0  0  0  0  0  0  0  0
  147.2260  138.9320  151.3410 O   0  0  0  0  0  0  0  0  0  0  0  0
  146.1970  142.1640  152.6940 C   0  0  0  0  0  1  0  0  0  0  0  0
  146.5380  141.6350  151.4160 O   0  0  0  0  0  0  0  0  0  0  0  0
  141.1860  137.2580  150.8310 C   0  0  0  0  0  2  0  0  0  0  0  0
  141.3570  137.7190  152.2620 C   0  0  0  0  0  0  0  0  0  0  0  0
  142.5990  137.6130  152.8930 C   0  0  0  0  0  3  0  0  0  0  0  0
  142.7690  138.0700  154.1990 C   0  0  0  0  0  3  0  0  0  0  0  0
  141.6990  138.6460  154.8930 C   0  0  0  0  0  0  0  0  0  0  0  0
  140.4420  138.7510  154.2890 C   0  0  0  0  0  0  0  0  0  0  0  0
  140.2870  138.2880  152.9720 C   0  0  0  0  0  3  0  0  0  0  0  0
  141.9250  139.0890  156.1660 O   0  0  0  0  0  0  0  0  0  0  0  0
  142.6510  139.6550  156.3440 H   0  0  0  0  0  0  0  0  0  0  0  0
  139.2860  139.2620  154.8200 O   0  0  0  0  0  0  0  0  0  0  0  0
  138.0840  138.5290  154.6320 C   0  0  0  0  0  1  0  0  0  0  0  0
  1 13  1  0  0  0  0
  2  7  1  0  0  0  0
  2  1  1  0  0  0  0
  3 12  1  0  0  0  0
  4  3  2  0  0  0  0
  5  4  1  0  0  0  0
  6  5  2  0  0  0  0
  7  5  1  0  0  0  0
  7  8  2  0  0  0  0
  8  9  1  0  0  0  0
  9  3  1  0  0  0  0
  9 10  2  0  0  0  0
 12 11  1  0  0  0  0
 13 14  1  0  0  0  0
 14 15  2  0  0  0  0
 14 19  1  0  0  0  0
 15 16  1  0  0  0  0
 16 17  2  0  0  0  0
 17 20  1  0  0  0  0
 18 22  1  0  0  0  0
 18 17  1  0  0  0  0
 19 18  2  0  0  0  0
 20 21  1  0  0  0  0
 23 22  1  0  0  0  0
M  END
>  <MODEL>
5

>  <REMARK>
 VINA RESULT:    -6.733      7.558     10.471
 INTER + INTRA:          -9.877
 INTER:                  -8.650
 INTRA:                  -1.227
 UNBOUND:                -0.585
  Name = CHEMBL1834919
  9 active torsions:
  status: ('A' for Active; 'I' for Inactive)
    1  A    between atoms: C_1  and  O_2
    2  A    between atoms: O_2  and  C_3
    3  A    between atoms: C_7  and  C_8
    4  A    between atoms: C_8  and  C_9
    5  A    between atoms: C_9  and  C_10
    6  A    between atoms: C_10  and  C_11
    7  A    between atoms: C_14  and  O_15
    8  A    between atoms: C_16  and  O_17
    9  A    between atoms: O_17  and  C_18
                            x       y       z     vdW  Elec       q    Type
                         _______ _______ _______ _____ _____    ______ ____

>  <TORSDO>
F 7

>  <SCORE>
-6.733

>  <RMSD_LB>
7.558

>  <RMSD_UB>
10.471

$$$$
CHEMBL1834919
 OpenBabel10172500263D

 23 24  0  0  0  0  0  0  0  0999 V2000
  143.1620  137.3690  152.4920 C   0  0  0  0  0  2  0  0  0  0  0  0
  142.2720  138.6180  152.5040 C   0  0  0  0  0  2  0  0  0  0  0  0
  138.2050  137.7530  154.0750 C   0  0  0  0  0  0  0  0  0  0  0  0
  138.4670  137.6620  152.7610 C   0  0  0  0  0  3  0  0  0  0  0  0
  139.7940  137.9560  152.1670 C   0  0  0  0  0  0  0  0  0  0  0  0
  139.9410  137.8180  150.9550 O   0  0  0  0  0  0  0  0  0  0  0  0
  140.8860  138.3710  153.0710 C   0  0  0  0  0  0  0  0  0  0  0  0
  140.6330  138.4480  154.3920 C   0  0  0  0  0  3  0  0  0  0  0  0
  139.3140  138.1680  154.9900 C   0  0  0  0  0  0  0  0  0  0  0  0
  139.1760  138.2710  156.2040 O   0  0  0  0  0  0  0  0  0  0  0  0
  136.6180  136.1420  154.8570 C   0  0  0  0  0  1  0  0  0  0  0  0
  136.9800  137.5060  154.6620 O   0  0  0  0  0  0  0  0  0  0  0  0
  143.9200  137.1660  153.8130 C   0  0  0  0  0  2  0  0  0  0  0  0
  145.3170  137.7410  153.7340 C   0  0  0  0  0  0  0  0  0  0  0  0
  146.3810  136.9500  153.2920 C   0  0  0  0  0  3  0  0  0  0  0  0
  147.6630  137.4870  153.1840 C   0  0  0  0  0  3  0  0  0  0  0  0
  147.8990  138.8270  153.5100 C   0  0  0  0  0  0  0  0  0  0  0  0
  146.8540  139.6370  153.9670 C   0  0  0  0  0  0  0  0  0  0  0  0
  145.5680  139.0820  154.0690 C   0  0  0  0  0  3  0  0  0  0  0  0
  149.1730  139.3060  153.3710 O   0  0  0  0  0  0  0  0  0  0  0  0
  149.7230  138.9830  152.6840 H   0  0  0  0  0  0  0  0  0  0  0  0
  146.9050  140.9520  154.3480 O   0  0  0  0  0  0  0  0  0  0  0  0
  146.6880  141.9440  153.3540 C   0  0  0  0  0  1  0  0  0  0  0  0
  1  2  1  0  0  0  0
  1 13  1  0  0  0  0
  2  7  1  0  0  0  0
  3 12  1  0  0  0  0
  3  9  1  0  0  0  0
  4  3  2  0  0  0  0
  5  4  1  0  0  0  0
  5  7  1  0  0  0  0
  6  5  2  0  0  0  0
  7  8  2  0  0  0  0
  8  9  1  0  0  0  0
  9 10  2  0  0  0  0
 12 11  1  0  0  0  0
 14 13  1  0  0  0  0
 14 19  1  0  0  0  0
 15 14  2  0  0  0  0
 16 15  1  0  0  0  0
 16 17  2  0  0  0  0
 17 18  1  0  0  0  0
 18 19  2  0  0  0  0
 18 22  1  0  0  0  0
 20 17  1  0  0  0  0
 21 20  1  0  0  0  0
 23 22  1  0  0  0  0
M  END
>  <MODEL>
6

>  <REMARK>
 VINA RESULT:    -6.575      6.786     10.212
 INTER + INTRA:          -9.659
 INTER:                  -9.009
 INTRA:                  -0.650
 UNBOUND:                -0.585
  Name = CHEMBL1834919
  9 active torsions:
  status: ('A' for Active; 'I' for Inactive)
    1  A    between atoms: C_1  and  O_2
    2  A    between atoms: O_2  and  C_3
    3  A    between atoms: C_7  and  C_8
    4  A    between atoms: C_8  and  C_9
    5  A    between atoms: C_9  and  C_10
    6  A    between atoms: C_10  and  C_11
    7  A    between atoms: C_14  and  O_15
    8  A    between atoms: C_16  and  O_17
    9  A    between atoms: O_17  and  C_18
                            x       y       z     vdW  Elec       q    Type
                         _______ _______ _______ _____ _____    ______ ____

>  <TORSDO>
F 7

>  <SCORE>
-6.575

>  <RMSD_LB>
6.786

>  <RMSD_UB>
10.212

$$$$
CHEMBL1834919
 OpenBabel10172500263D

 23 24  0  0  0  0  0  0  0  0999 V2000
  146.3420  141.7490  149.1250 C   0  0  0  0  0  2  0  0  0  0  0  0
  146.3610  140.2410  149.3990 C   0  0  0  0  0  2  0  0  0  0  0  0
  142.4760  138.6180  150.8240 C   0  0  0  0  0  0  0  0  0  0  0  0
  143.6370  138.1060  151.2650 C   0  0  0  0  0  3  0  0  0  0  0  0
  144.9670  138.5850  150.8170 C   0  0  0  0  0  0  0  0  0  0  0  0
  145.9720  138.0690  151.2990 O   0  0  0  0  0  0  0  0  0  0  0  0
  145.0160  139.6850  149.8320 C   0  0  0  0  0  0  0  0  0  0  0  0
  143.8550  140.2120  149.3980 C   0  0  0  0  0  3  0  0  0  0  0  0
  142.5280  139.7350  149.8300 C   0  0  0  0  0  0  0  0  0  0  0  0
  141.5240  140.2730  149.3760 O   0  0  0  0  0  0  0  0  0  0  0  0
  140.8580  138.3680  152.5690 C   0  0  0  0  0  1  0  0  0  0  0  0
  141.2200  138.1870  151.2030 O   0  0  0  0  0  0  0  0  0  0  0  0
  146.0070  142.5760  150.3770 C   0  0  0  0  0  2  0  0  0  0  0  0
  146.7570  142.0630  151.5860 C   0  0  0  0  0  0  0  0  0  0  0  0
  148.1510  142.1470  151.6390 C   0  0  0  0  0  3  0  0  0  0  0  0
  148.8430  141.7080  152.7670 C   0  0  0  0  0  3  0  0  0  0  0  0
  148.1500  141.1850  153.8640 C   0  0  0  0  0  0  0  0  0  0  0  0
  146.7550  141.0790  153.8320 C   0  0  0  0  0  0  0  0  0  0  0  0
  146.0730  141.5260  152.6890 C   0  0  0  0  0  3  0  0  0  0  0  0
  148.8770  140.7840  154.9500 O   0  0  0  0  0  0  0  0  0  0  0  0
  148.7510  141.2010  155.7800 H   0  0  0  0  0  0  0  0  0  0  0  0
  145.9200  140.5780  154.7960 O   0  0  0  0  0  0  0  0  0  0  0  0
  145.1510  139.4260  154.4810 C   0  0  0  0  0  1  0  0  0  0  0  0
  1  2  1  0  0  0  0
  1 13  1  0  0  0  0
  2  7  1  0  0  0  0
  3 12  1  0  0  0  0
  3  4  2  0  0  0  0
  5  4  1  0  0  0  0
  5  6  2  0  0  0  0
  7  5  1  0  0  0  0
  8  9  1  0  0  0  0
  8  7  2  0  0  0  0
  9  3  1  0  0  0  0
 10  9  2  0  0  0  0
 12 11  1  0  0  0  0
 13 14  1  0  0  0  0
 14 15  2  0  0  0  0
 14 19  1  0  0  0  0
 15 16  1  0  0  0  0
 16 17  2  0  0  0  0
 17 20  1  0  0  0  0
 18 17  1  0  0  0  0
 18 22  1  0  0  0  0
 19 18  2  0  0  0  0
 20 21  1  0  0  0  0
 23 22  1  0  0  0  0
M  END
>  <MODEL>
7

>  <REMARK>
 VINA RESULT:    -6.568      9.425     12.366
 INTER + INTRA:          -9.648
 INTER:                  -8.838
 INTRA:                  -0.810
 UNBOUND:                -0.585
  Name = CHEMBL1834919
  9 active torsions:
  status: ('A' for Active; 'I' for Inactive)
    1  A    between atoms: C_1  and  O_2
    2  A    between atoms: O_2  and  C_3
    3  A    between atoms: C_7  and  C_8
    4  A    between atoms: C_8  and  C_9
    5  A    between atoms: C_9  and  C_10
    6  A    between atoms: C_10  and  C_11
    7  A    between atoms: C_14  and  O_15
    8  A    between atoms: C_16  and  O_17
    9  A    between atoms: O_17  and  C_18
                            x       y       z     vdW  Elec       q    Type
                         _______ _______ _______ _____ _____    ______ ____

>  <TORSDO>
F 7

>  <SCORE>
-6.568

>  <RMSD_LB>
9.425

>  <RMSD_UB>
12.366

$$$$
CHEMBL1834919
 OpenBabel10172500263D

 23 24  0  0  0  0  0  0  0  0999 V2000
  138.1440  137.3900  152.3260 C   0  0  0  0  0  2  0  0  0  0  0  0
  139.0810  138.5960  152.1870 C   0  0  0  0  0  2  0  0  0  0  0  0
  143.2360  137.6520  153.4530 C   0  0  0  0  0  0  0  0  0  0  0  0
  142.3900  138.2780  154.2870 C   0  0  0  0  0  3  0  0  0  0  0  0
  140.9980  138.6410  153.9240 C   0  0  0  0  0  0  0  0  0  0  0  0
  140.2930  139.1900  154.7670 O   0  0  0  0  0  0  0  0  0  0  0  0
  140.5190  138.2950  152.5700 C   0  0  0  0  0  0  0  0  0  0  0  0
  141.3590  137.6530  151.7340 C   0  0  0  0  0  3  0  0  0  0  0  0
  142.7460  137.2980  152.0840 C   0  0  0  0  0  0  0  0  0  0  0  0
  143.4400  136.7190  151.2550 O   0  0  0  0  0  0  0  0  0  0  0  0
  145.3740  138.3440  154.2750 C   0  0  0  0  0  1  0  0  0  0  0  0
  144.5420  137.3140  153.7490 O   0  0  0  0  0  0  0  0  0  0  0  0
  137.6160  136.8880  150.9730 C   0  0  0  0  0  2  0  0  0  0  0  0
  136.4800  135.9070  151.1600 C   0  0  0  0  0  0  0  0  0  0  0  0
  135.9330  135.2430  150.0590 C   0  0  0  0  0  3  0  0  0  0  0  0
  134.9100  134.3120  150.2320 C   0  0  0  0  0  3  0  0  0  0  0  0
  134.4230  134.0250  151.5120 C   0  0  0  0  0  0  0  0  0  0  0  0
  134.9450  134.6850  152.6290 C   0  0  0  0  0  0  0  0  0  0  0  0
  135.9760  135.6190  152.4390 C   0  0  0  0  0  3  0  0  0  0  0  0
  133.4300  133.0920  151.6250 O   0  0  0  0  0  0  0  0  0  0  0  0
  132.5520  133.3620  151.8130 H   0  0  0  0  0  0  0  0  0  0  0  0
  134.5780  134.5480  153.9430 O   0  0  0  0  0  0  0  0  0  0  0  0
  133.7980  135.5790  154.5310 C   0  0  0  0  0  1  0  0  0  0  0  0
  2  1  1  0  0  0  0
  2  7  1  0  0  0  0
  3 12  1  0  0  0  0
  3  4  2  0  0  0  0
  5  4  1  0  0  0  0
  5  6  2  0  0  0  0
  7  5  1  0  0  0  0
  8  9  1  0  0  0  0
  8  7  2  0  0  0  0
  9  3  1  0  0  0  0
 10  9  2  0  0  0  0
 12 11  1  0  0  0  0
 13 14  1  0  0  0  0
 13  1  1  0  0  0  0
 14 19  1  0  0  0  0
 15 16  1  0  0  0  0
 15 14  2  0  0  0  0
 16 17  2  0  0  0  0
 17 20  1  0  0  0  0
 17 18  1  0  0  0  0
 18 22  1  0  0  0  0
 19 18  2  0  0  0  0
 20 21  1  0  0  0  0
 22 23  1  0  0  0  0
M  END
>  <MODEL>
8

>  <REMARK>
 VINA RESULT:    -6.373      4.397      8.473
 INTER + INTRA:          -9.380
 INTER:                  -8.795
 INTRA:                  -0.585
 UNBOUND:                -0.585
  Name = CHEMBL1834919
  9 active torsions:
  status: ('A' for Active; 'I' for Inactive)
    1  A    between atoms: C_1  and  O_2
    2  A    between atoms: O_2  and  C_3
    3  A    between atoms: C_7  and  C_8
    4  A    between atoms: C_8  and  C_9
    5  A    between atoms: C_9  and  C_10
    6  A    between atoms: C_10  and  C_11
    7  A    between atoms: C_14  and  O_15
    8  A    between atoms: C_16  and  O_17
    9  A    between atoms: O_17  and  C_18
                            x       y       z     vdW  Elec       q    Type
                         _______ _______ _______ _____ _____    ______ ____

>  <TORSDO>
F 7

>  <SCORE>
-6.373

>  <RMSD_LB>
4.397

>  <RMSD_UB>
8.473

$$$$
CHEMBL1834919
 OpenBabel10172500263D

 23 24  0  0  0  0  0  0  0  0999 V2000
  148.4230  141.8950  153.6310 C   0  0  0  0  0  2  0  0  0  0  0  0
  148.4450  140.6490  154.5240 C   0  0  0  0  0  2  0  0  0  0  0  0
  144.8150  138.1550  153.9260 C   0  0  0  0  0  0  0  0  0  0  0  0
  144.7330  139.4950  153.9330 C   0  0  0  0  0  3  0  0  0  0  0  0
  145.8990  140.3870  154.1460 C   0  0  0  0  0  0  0  0  0  0  0  0
  145.7260  141.6030  154.1080 O   0  0  0  0  0  0  0  0  0  0  0  0
  147.2210  139.7650  154.3640 C   0  0  0  0  0  0  0  0  0  0  0  0
  147.3110  138.4210  154.3430 C   0  0  0  0  0  3  0  0  0  0  0  0
  146.1560  137.5270  154.1420 C   0  0  0  0  0  0  0  0  0  0  0  0
  146.3340  136.3140  154.1450 O   0  0  0  0  0  0  0  0  0  0  0  0
  142.8090  137.6260  152.7330 C   0  0  0  0  0  1  0  0  0  0  0  0
  143.7510  137.2920  153.7490 O   0  0  0  0  0  0  0  0  0  0  0  0
  149.0070  141.6360  152.2340 C   0  0  0  0  0  2  0  0  0  0  0  0
  147.9110  141.3950  151.2190 C   0  0  0  0  0  0  0  0  0  0  0  0
  147.1940  142.4710  150.6890 C   0  0  0  0  0  3  0  0  0  0  0  0
  146.2070  142.2560  149.7270 C   0  0  0  0  0  3  0  0  0  0  0  0
  145.9270  140.9610  149.2770 C   0  0  0  0  0  0  0  0  0  0  0  0
  146.6210  139.8670  149.8020 C   0  0  0  0  0  0  0  0  0  0  0  0
  147.6130  140.0990  150.7680 C   0  0  0  0  0  3  0  0  0  0  0  0
  144.9590  140.8100  148.3220 O   0  0  0  0  0  0  0  0  0  0  0  0
  144.2620  141.4330  148.2580 H   0  0  0  0  0  0  0  0  0  0  0  0
  146.4670  138.5390  149.4970 O   0  0  0  0  0  0  0  0  0  0  0  0
  145.7520  137.7220  150.4140 C   0  0  0  0  0  1  0  0  0  0  0  0
  1  2  1  0  0  0  0
  3  4  2  0  0  0  0
  3  9  1  0  0  0  0
  4  5  1  0  0  0  0
  5  7  1  0  0  0  0
  6  5  2  0  0  0  0
  7  2  1  0  0  0  0
  8  7  2  0  0  0  0
  9 10  2  0  0  0  0
  9  8  1  0  0  0  0
 11 12  1  0  0  0  0
 12  3  1  0  0  0  0
 13  1  1  0  0  0  0
 14 13  1  0  0  0  0
 15 14  2  0  0  0  0
 16 15  1  0  0  0  0
 17 16  2  0  0  0  0
 17 18  1  0  0  0  0
 18 19  2  0  0  0  0
 19 14  1  0  0  0  0
 20 17  1  0  0  0  0
 21 20  1  0  0  0  0
 22 18  1  0  0  0  0
 22 23  1  0  0  0  0
M  END
>  <MODEL>
9

>  <REMARK>
 VINA RESULT:    -6.343      9.764     13.921
 INTER + INTRA:          -9.339
 INTER:                  -8.531
 INTRA:                  -0.807
 UNBOUND:                -0.585
  Name = CHEMBL1834919
  9 active torsions:
  status: ('A' for Active; 'I' for Inactive)
    1  A    between atoms: C_1  and  O_2
    2  A    between atoms: O_2  and  C_3
    3  A    between atoms: C_7  and  C_8
    4  A    between atoms: C_8  and  C_9
    5  A    between atoms: C_9  and  C_10
    6  A    between atoms: C_10  and  C_11
    7  A    between atoms: C_14  and  O_15
    8  A    between atoms: C_16  and  O_17
    9  A    between atoms: O_17  and  C_18
                            x       y       z     vdW  Elec       q    Type
                         _______ _______ _______ _____ _____    ______ ____

>  <TORSDO>
F 7

>  <SCORE>
-6.343

>  <RMSD_LB>
9.764

>  <RMSD_UB>
13.921

$$$$
