CHEMBL3275051
 OpenBabel10162523403D

 29 29  0  0  1  0  0  0  0  0999 V2000
  134.4150  135.4400  152.9650 C   0  0  0  0  0  0  0  0  0  0  0  0
  135.4560  134.5550  152.6790 C   0  0  0  0  0  3  0  0  0  0  0  0
  135.6030  134.0200  151.4030 C   0  0  0  0  0  3  0  0  0  0  0  0
  134.7070  134.3540  150.3780 C   0  0  0  0  0  0  0  0  0  0  0  0
  133.6570  135.2450  150.6510 C   0  0  0  0  0  0  0  0  0  0  0  0
  133.5330  135.8020  151.9320 C   0  0  0  0  0  3  0  0  0  0  0  0
  132.7010  135.6940  149.7710 O   0  0  0  0  0  0  0  0  0  0  0  0
  132.9500  136.9300  149.1160 C   0  0  0  0  0  1  0  0  0  0  0  0
  134.2330  135.9880  154.3550 C   0  0  0  0  0  2  0  0  0  0  0  0
  136.2220  136.5030  155.6650 C   0  0  0  0  0  0  0  0  0  0  0  0
  136.1560  137.6940  155.3760 O   0  0  0  0  0  0  0  0  0  0  0  0
  135.2960  135.5770  155.2410 N   0  0  0  0  0  0  0  0  0  0  0  0
  135.3580  134.6410  155.5410 H   0  0  0  0  0  0  0  0  0  0  0  0
  137.3400  135.9450  156.5170 C   0  0  0  0  0  2  0  0  0  0  0  0
  136.2770  135.0770  158.6510 C   0  0  0  0  0  1  0  0  0  0  0  0
  137.1220  136.1690  158.0100 C   0  0  0  0  0  2  0  0  0  0  0  0
  134.8070  133.8700  149.1090 O   0  0  0  0  0  0  0  0  0  0  0  0
  134.0430  132.7230  148.7380 C   0  0  0  0  0  2  0  0  0  0  0  0
  133.3160  133.0770  147.4360 C   0  0  1  0  0  3  0  0  0  0  0  0
  132.0810  133.7420  147.7420 O   0  0  0  0  0  0  0  0  0  0  0  0
  131.9440  134.4730  147.1190 H   0  0  0  0  0  0  0  0  0  0  0  0
  134.1610  134.0050  146.5480 C   0  0  0  0  0  2  0  0  0  0  0  0
  134.2460  133.5440  145.1550 N   0  0  0  0  0  4  0  0  0  0  0  0
  133.8440  134.2650  144.5560 H   0  0  0  0  0  0  0  0  0  0  0  0
  133.7390  132.6600  145.1090 H   0  0  0  0  0  0  0  0  0  0  0  0
  135.6190  133.2670  144.6870 C   0  0  0  0  0  0  0  0  0  0  0  0
  136.6070  133.1510  145.8620 C   0  0  0  0  0  1  0  0  0  0  0  0
  135.5900  131.9180  143.9430 C   0  0  0  0  0  1  0  0  0  0  0  0
  136.0850  134.3520  143.7030 C   0  0  0  0  0  1  0  0  0  0  0  0
  1  9  1  0  0  0  0
  2  1  1  0  0  0  0
  3  2  2  0  0  0  0
  4  5  2  0  0  0  0
  4  3  1  0  0  0  0
  5  6  1  0  0  0  0
  6  1  2  0  0  0  0
  7  5  1  0  0  0  0
  8  7  1  0  0  0  0
  9 12  1  0  0  0  0
 10 14  1  0  0  0  0
 11 10  2  0  0  0  0
 12 13  1  0  0  0  0
 12 10  1  0  0  0  0
 14 16  1  0  0  0  0
 16 15  1  0  0  0  0
 17  4  1  0  0  0  0
 18 17  1  0  0  0  0
 19 22  1  6  0  0  0
 19 20  1  0  0  0  0
 19 18  1  0  0  0  0
 21 20  1  0  0  0  0
 23 22  1  0  0  0  0
 24 23  1  0  0  0  0
 25 23  1  0  0  0  0
 26 23  1  0  0  0  0
 26 27  1  0  0  0  0
 28 26  1  0  0  0  0
 29 26  1  0  0  0  0
M  END
>  <MODEL>
1

>  <REMARK>
 VINA RESULT:    -6.874      0.000      0.000
 INTER + INTRA:         -12.510
 INTER:                 -11.250
 INTRA:                  -1.260
 UNBOUND:                -1.015
  Name = CHEMBL3275051
  17 active torsions:
  status: ('A' for Active; 'I' for Inactive)
    1  A    between atoms: C_1  and  C_2
    2  A    between atoms: C_2  and  C_3
    3  A    between atoms: C_3  and  C_4
    4  A    between atoms: N_6  and  C_7
    5  A    between atoms: C_7  and  C_8
    6  A    between atoms: C_11  and  O_12
    7  A    between atoms: O_12  and  C_13
    8  A    between atoms: C_13  and  C_14
    9  A    between atoms: C_14  and  O_15
   10  A    between atoms: C_14  and  C_16
   11  A    between atoms: C_16  and  N_17
   12  A    between atoms: N_17  and  C_18
   13  A    between atoms: C_18  and  C_19
   14  A    between atoms: C_18  and  C_20
   15  A    between atoms: C_18  and  C_21
   16  A    between atoms: C_22  and  O_23
   17  A    between atoms: O_23  and  C_24
                            x       y       z     vdW  Elec       q    Type
                         _______ _______ _______ _____ _____    ______ ____

>  <TORSDO>
F 12

>  <SCORE>
-6.874

>  <RMSD_LB>
0.000

>  <RMSD_UB>
0.000

$$$$
CHEMBL3275051
 OpenBabel10162523403D

 29 29  0  0  1  0  0  0  0  0999 V2000
  137.2250  136.8940  153.9060 C   0  0  0  0  0  0  0  0  0  0  0  0
  137.5710  137.1570  152.5800 C   0  0  0  0  0  3  0  0  0  0  0  0
  136.7790  136.6950  151.5330 C   0  0  0  0  0  3  0  0  0  0  0  0
  135.6190  135.9490  151.7870 C   0  0  0  0  0  0  0  0  0  0  0  0
  135.2570  135.6790  153.1170 C   0  0  0  0  0  0  0  0  0  0  0  0
  136.0460  136.1730  154.1660 C   0  0  0  0  0  3  0  0  0  0  0  0
  134.1540  134.9830  153.5510 O   0  0  0  0  0  0  0  0  0  0  0  0
  134.3850  133.8320  154.3520 C   0  0  0  0  0  1  0  0  0  0  0  0
  138.1020  137.3600  155.0360 C   0  0  0  0  0  2  0  0  0  0  0  0
  137.0960  137.4250  157.2550 C   0  0  0  0  0  0  0  0  0  0  0  0
  136.7060  138.5770  157.0900 O   0  0  0  0  0  0  0  0  0  0  0  0
  137.7660  136.7150  156.2830 N   0  0  0  0  0  0  0  0  0  0  0  0
  138.0140  135.7750  156.4370 H   0  0  0  0  0  0  0  0  0  0  0  0
  136.8750  136.6790  158.5520 C   0  0  0  0  0  2  0  0  0  0  0  0
  135.0590  135.0170  157.9410 C   0  0  0  0  0  1  0  0  0  0  0  0
  136.5140  135.2120  158.3440 C   0  0  0  0  0  2  0  0  0  0  0  0
  134.8000  135.4800  150.8060 O   0  0  0  0  0  0  0  0  0  0  0  0
  134.9670  134.1400  150.3400 C   0  0  0  0  0  2  0  0  0  0  0  0
  133.5670  133.6030  150.0260 C   0  0  1  0  0  3  0  0  0  0  0  0
  132.7270  133.7520  151.1810 O   0  0  0  0  0  0  0  0  0  0  0  0
  132.4760  132.8750  151.5140 H   0  0  0  0  0  0  0  0  0  0  0  0
  132.9180  134.3560  148.8530 C   0  0  0  0  0  2  0  0  0  0  0  0
  133.9010  135.0000  147.9720 N   0  0  0  0  0  4  0  0  0  0  0  0
  133.8980  134.5090  147.0780 H   0  0  0  0  0  0  0  0  0  0  0  0
  134.8000  134.9490  148.4510 H   0  0  0  0  0  0  0  0  0  0  0  0
  133.6420  136.4320  147.7140 C   0  0  0  0  0  0  0  0  0  0  0  0
  132.6410  137.0200  148.7240 C   0  0  0  0  0  1  0  0  0  0  0  0
  134.9820  137.1790  147.8670 C   0  0  0  0  0  1  0  0  0  0  0  0
  133.1350  136.6400  146.2780 C   0  0  0  0  0  1  0  0  0  0  0  0
  1  6  1  0  0  0  0
  1  9  1  0  0  0  0
  2  1  2  0  0  0  0
  3  4  2  0  0  0  0
  3  2  1  0  0  0  0
  4  5  1  0  0  0  0
  5  7  1  0  0  0  0
  5  6  2  0  0  0  0
  7  8  1  0  0  0  0
  9 12  1  0  0  0  0
 10 14  1  0  0  0  0
 11 10  2  0  0  0  0
 12 13  1  0  0  0  0
 12 10  1  0  0  0  0
 15 16  1  0  0  0  0
 16 14  1  0  0  0  0
 17  4  1  0  0  0  0
 18 17  1  0  0  0  0
 19 22  1  6  0  0  0
 19 18  1  0  0  0  0
 19 20  1  0  0  0  0
 20 21  1  0  0  0  0
 23 25  1  0  0  0  0
 23 22  1  0  0  0  0
 24 23  1  0  0  0  0
 26 28  1  0  0  0  0
 26 23  1  0  0  0  0
 26 27  1  0  0  0  0
 29 26  1  0  0  0  0
M  END
>  <MODEL>
2

>  <REMARK>
 VINA RESULT:    -6.651      2.660      3.622
 INTER + INTRA:         -12.137
 INTER:                 -10.419
 INTRA:                  -1.718
 UNBOUND:                -1.015
  Name = CHEMBL3275051
  17 active torsions:
  status: ('A' for Active; 'I' for Inactive)
    1  A    between atoms: C_1  and  C_2
    2  A    between atoms: C_2  and  C_3
    3  A    between atoms: C_3  and  C_4
    4  A    between atoms: N_6  and  C_7
    5  A    between atoms: C_7  and  C_8
    6  A    between atoms: C_11  and  O_12
    7  A    between atoms: O_12  and  C_13
    8  A    between atoms: C_13  and  C_14
    9  A    between atoms: C_14  and  O_15
   10  A    between atoms: C_14  and  C_16
   11  A    between atoms: C_16  and  N_17
   12  A    between atoms: N_17  and  C_18
   13  A    between atoms: C_18  and  C_19
   14  A    between atoms: C_18  and  C_20
   15  A    between atoms: C_18  and  C_21
   16  A    between atoms: C_22  and  O_23
   17  A    between atoms: O_23  and  C_24
                            x       y       z     vdW  Elec       q    Type
                         _______ _______ _______ _____ _____    ______ ____

>  <TORSDO>
F 12

>  <SCORE>
-6.651

>  <RMSD_LB>
2.660

>  <RMSD_UB>
3.622

$$$$
CHEMBL3275051
 OpenBabel10162523403D

 29 29  0  0  1  0  0  0  0  0999 V2000
  140.3340  138.1230  153.1380 C   0  0  0  0  0  0  0  0  0  0  0  0
  140.7870  137.5640  151.9420 C   0  0  0  0  0  3  0  0  0  0  0  0
  142.1300  137.6360  151.5860 C   0  0  0  0  0  3  0  0  0  0  0  0
  143.0590  138.2760  152.4190 C   0  0  0  0  0  0  0  0  0  0  0  0
  142.6180  138.8400  153.6280 C   0  0  0  0  0  0  0  0  0  0  0  0
  141.2670  138.7380  153.9910 C   0  0  0  0  0  3  0  0  0  0  0  0
  143.3840  139.4880  154.5680 O   0  0  0  0  0  0  0  0  0  0  0  0
  142.7450  139.8650  155.7790 C   0  0  0  0  0  1  0  0  0  0  0  0
  138.8760  138.0800  153.5030 C   0  0  0  0  0  2  0  0  0  0  0  0
  137.7430  138.0690  155.6600 C   0  0  0  0  0  0  0  0  0  0  0  0
  137.0360  139.0210  155.3420 O   0  0  0  0  0  0  0  0  0  0  0  0
  138.6620  137.5000  154.8070 N   0  0  0  0  0  0  0  0  0  0  0  0
  139.1700  136.7030  155.0850 H   0  0  0  0  0  0  0  0  0  0  0  0
  137.6650  137.4340  157.0310 C   0  0  0  0  0  2  0  0  0  0  0  0
  136.6470  135.4660  158.2660 C   0  0  0  0  0  1  0  0  0  0  0  0
  137.3100  135.9510  156.9840 C   0  0  0  0  0  2  0  0  0  0  0  0
  144.3860  138.3680  152.1300 O   0  0  0  0  0  0  0  0  0  0  0  0
  145.2210  137.2250  152.3150 C   0  0  0  0  0  2  0  0  0  0  0  0
  146.0750  137.4960  153.5580 C   0  0  1  0  0  3  0  0  0  0  0  0
  146.4180  136.2510  154.1850 O   0  0  0  0  0  0  0  0  0  0  0  0
  147.0910  136.4070  154.8670 H   0  0  0  0  0  0  0  0  0  0  0  0
  147.3740  138.2370  153.2050 C   0  0  0  0  0  2  0  0  0  0  0  0
  147.1480  139.4290  152.3770 N   0  0  0  0  0  4  0  0  0  0  0  0
  146.1430  139.5370  152.2410 H   0  0  0  0  0  0  0  0  0  0  0  0
  147.6530  139.2780  151.5030 H   0  0  0  0  0  0  0  0  0  0  0  0
  147.6730  140.6830  152.9550 C   0  0  0  0  0  0  0  0  0  0  0  0
  146.5410  141.6010  153.4470 C   0  0  0  0  0  1  0  0  0  0  0  0
  148.5490  140.3020  154.1650 C   0  0  0  0  0  1  0  0  0  0  0  0
  148.5540  141.4220  151.9350 C   0  0  0  0  0  1  0  0  0  0  0  0
  1  9  1  0  0  0  0
  1  6  1  0  0  0  0
  2  1  2  0  0  0  0
  3  2  1  0  0  0  0
  3  4  2  0  0  0  0
  4  5  1  0  0  0  0
  5  6  2  0  0  0  0
  5  7  1  0  0  0  0
  7  8  1  0  0  0  0
  9 12  1  0  0  0  0
 10 14  1  0  0  0  0
 11 10  2  0  0  0  0
 12 13  1  0  0  0  0
 12 10  1  0  0  0  0
 16 14  1  0  0  0  0
 16 15  1  0  0  0  0
 17 18  1  0  0  0  0
 17  4  1  0  0  0  0
 19 18  1  6  0  0  0
 19 20  1  0  0  0  0
 20 21  1  0  0  0  0
 22 19  1  0  0  0  0
 23 26  1  0  0  0  0
 23 22  1  0  0  0  0
 24 23  1  0  0  0  0
 25 23  1  0  0  0  0
 26 27  1  0  0  0  0
 26 28  1  0  0  0  0
 29 26  1  0  0  0  0
M  END
>  <MODEL>
3

>  <REMARK>
 VINA RESULT:    -6.461      8.032     11.151
 INTER + INTRA:         -11.819
 INTER:                 -10.751
 INTRA:                  -1.068
 UNBOUND:                -1.015
  Name = CHEMBL3275051
  17 active torsions:
  status: ('A' for Active; 'I' for Inactive)
    1  A    between atoms: C_1  and  C_2
    2  A    between atoms: C_2  and  C_3
    3  A    between atoms: C_3  and  C_4
    4  A    between atoms: N_6  and  C_7
    5  A    between atoms: C_7  and  C_8
    6  A    between atoms: C_11  and  O_12
    7  A    between atoms: O_12  and  C_13
    8  A    between atoms: C_13  and  C_14
    9  A    between atoms: C_14  and  O_15
   10  A    between atoms: C_14  and  C_16
   11  A    between atoms: C_16  and  N_17
   12  A    between atoms: N_17  and  C_18
   13  A    between atoms: C_18  and  C_19
   14  A    between atoms: C_18  and  C_20
   15  A    between atoms: C_18  and  C_21
   16  A    between atoms: C_22  and  O_23
   17  A    between atoms: O_23  and  C_24
                            x       y       z     vdW  Elec       q    Type
                         _______ _______ _______ _____ _____    ______ ____

>  <TORSDO>
F 12

>  <SCORE>
-6.461

>  <RMSD_LB>
8.032

>  <RMSD_UB>
11.151

$$$$
CHEMBL3275051
 OpenBabel10162523403D

 29 29  0  0  1  0  0  0  0  0999 V2000
  139.5660  137.8280  151.5830 C   0  0  0  0  0  0  0  0  0  0  0  0
  138.3520  137.2930  151.1490 C   0  0  0  0  0  3  0  0  0  0  0  0
  137.3340  137.0150  152.0550 C   0  0  0  0  0  3  0  0  0  0  0  0
  137.5050  137.2600  153.4250 C   0  0  0  0  0  0  0  0  0  0  0  0
  138.7210  137.8010  153.8750 C   0  0  0  0  0  0  0  0  0  0  0  0
  139.7310  138.1050  152.9510 C   0  0  0  0  0  3  0  0  0  0  0  0
  139.0570  138.1190  155.1700 O   0  0  0  0  0  0  0  0  0  0  0  0
  140.4400  138.1610  155.4900 C   0  0  0  0  0  1  0  0  0  0  0  0
  140.6810  138.0930  150.6080 C   0  0  0  0  0  2  0  0  0  0  0  0
  142.5210  139.6890  150.6710 C   0  0  0  0  0  0  0  0  0  0  0  0
  142.1390  140.2350  149.6400 O   0  0  0  0  0  0  0  0  0  0  0  0
  141.8480  138.6410  151.2580 N   0  0  0  0  0  0  0  0  0  0  0  0
  142.1600  138.2680  152.1140 H   0  0  0  0  0  0  0  0  0  0  0  0
  143.7770  140.1250  151.3910 C   0  0  0  0  0  2  0  0  0  0  0  0
  145.3240  142.1320  151.2630 C   0  0  0  0  0  1  0  0  0  0  0  0
  144.7110  140.9550  150.5160 C   0  0  0  0  0  2  0  0  0  0  0  0
  136.5420  137.0180  154.3550 O   0  0  0  0  0  0  0  0  0  0  0  0
  136.3640  135.6880  154.8450 C   0  0  0  0  0  2  0  0  0  0  0  0
  134.9090  135.3030  154.5620 C   0  0  1  0  0  3  0  0  0  0  0  0
  134.1580  136.4790  154.2240 O   0  0  0  0  0  0  0  0  0  0  0  0
  134.4950  136.8500  153.3920 H   0  0  0  0  0  0  0  0  0  0  0  0
  134.8010  134.3060  153.3960 C   0  0  0  0  0  2  0  0  0  0  0  0
  133.5390  134.4260  152.6540 N   0  0  0  0  0  4  0  0  0  0  0  0
  133.0090  135.2020  153.0500 H   0  0  0  0  0  0  0  0  0  0  0  0
  133.0610  133.5300  152.7440 H   0  0  0  0  0  0  0  0  0  0  0  0
  133.7040  134.6710  151.2060 C   0  0  0  0  0  0  0  0  0  0  0  0
  135.1460  134.3930  150.7440 C   0  0  0  0  0  1  0  0  0  0  0  0
  132.7620  133.7040  150.4630 C   0  0  0  0  0  1  0  0  0  0  0  0
  133.2990  136.1100  150.8500 C   0  0  0  0  0  1  0  0  0  0  0  0
  1  6  1  0  0  0  0
  2  1  2  0  0  0  0
  2  3  1  0  0  0  0
  3  4  2  0  0  0  0
  4  5  1  0  0  0  0
  4 17  1  0  0  0  0
  5  7  1  0  0  0  0
  6  5  2  0  0  0  0
  7  8  1  0  0  0  0
  9 12  1  0  0  0  0
  9  1  1  0  0  0  0
 10 12  1  0  0  0  0
 10 14  1  0  0  0  0
 11 10  2  0  0  0  0
 12 13  1  0  0  0  0
 16 15  1  0  0  0  0
 16 14  1  0  0  0  0
 17 18  1  0  0  0  0
 19 22  1  6  0  0  0
 19 18  1  0  0  0  0
 20 19  1  0  0  0  0
 21 20  1  0  0  0  0
 23 25  1  0  0  0  0
 23 24  1  0  0  0  0
 23 22  1  0  0  0  0
 26 23  1  0  0  0  0
 27 26  1  0  0  0  0
 28 26  1  0  0  0  0
 29 26  1  0  0  0  0
M  END
>  <MODEL>
4

>  <REMARK>
 VINA RESULT:    -6.461      5.445      7.843
 INTER + INTRA:         -11.819
 INTER:                 -10.723
 INTRA:                  -1.096
 UNBOUND:                -1.015
  Name = CHEMBL3275051
  17 active torsions:
  status: ('A' for Active; 'I' for Inactive)
    1  A    between atoms: C_1  and  C_2
    2  A    between atoms: C_2  and  C_3
    3  A    between atoms: C_3  and  C_4
    4  A    between atoms: N_6  and  C_7
    5  A    between atoms: C_7  and  C_8
    6  A    between atoms: C_11  and  O_12
    7  A    between atoms: O_12  and  C_13
    8  A    between atoms: C_13  and  C_14
    9  A    between atoms: C_14  and  O_15
   10  A    between atoms: C_14  and  C_16
   11  A    between atoms: C_16  and  N_17
   12  A    between atoms: N_17  and  C_18
   13  A    between atoms: C_18  and  C_19
   14  A    between atoms: C_18  and  C_20
   15  A    between atoms: C_18  and  C_21
   16  A    between atoms: C_22  and  O_23
   17  A    between atoms: O_23  and  C_24
                            x       y       z     vdW  Elec       q    Type
                         _______ _______ _______ _____ _____    ______ ____

>  <TORSDO>
F 12

>  <SCORE>
-6.461

>  <RMSD_LB>
5.445

>  <RMSD_UB>
7.843

$$$$
CHEMBL3275051
 OpenBabel10162523403D

 29 29  0  0  1  0  0  0  0  0999 V2000
  138.4760  137.7950  152.7660 C   0  0  0  0  0  0  0  0  0  0  0  0
  137.3210  137.0120  152.7350 C   0  0  0  0  0  3  0  0  0  0  0  0
  136.7750  136.5980  151.5240 C   0  0  0  0  0  3  0  0  0  0  0  0
  137.3690  136.9620  150.3080 C   0  0  0  0  0  0  0  0  0  0  0  0
  138.5340  137.7470  150.3240 C   0  0  0  0  0  0  0  0  0  0  0  0
  139.0930  138.1360  151.5490 C   0  0  0  0  0  3  0  0  0  0  0  0
  139.2550  138.1820  149.2370 O   0  0  0  0  0  0  0  0  0  0  0  0
  140.1530  139.2630  149.4440 C   0  0  0  0  0  1  0  0  0  0  0  0
  139.0440  138.2760  154.0730 C   0  0  0  0  0  2  0  0  0  0  0  0
  137.4820  138.0930  155.9350 C   0  0  0  0  0  0  0  0  0  0  0  0
  136.9470  139.1590  155.6460 O   0  0  0  0  0  0  0  0  0  0  0  0
  138.5070  137.5450  155.1970 N   0  0  0  0  0  0  0  0  0  0  0  0
  138.8720  136.6620  155.4340 H   0  0  0  0  0  0  0  0  0  0  0  0
  137.0590  137.2830  157.1400 C   0  0  0  0  0  2  0  0  0  0  0  0
  135.7380  135.5390  155.8560 C   0  0  0  0  0  1  0  0  0  0  0  0
  136.8780  135.8000  156.8300 C   0  0  0  0  0  2  0  0  0  0  0  0
  136.8870  136.5780  149.0940 O   0  0  0  0  0  0  0  0  0  0  0  0
  135.9760  137.4340  148.4030 C   0  0  0  0  0  2  0  0  0  0  0  0
  134.5920  136.7860  148.5080 C   0  0  1  0  0  3  0  0  0  0  0  0
  133.6290  137.5960  147.8150 O   0  0  0  0  0  0  0  0  0  0  0  0
  132.9840  137.0220  147.3710 H   0  0  0  0  0  0  0  0  0  0  0  0
  134.5750  135.3770  147.8940 C   0  0  0  0  0  2  0  0  0  0  0  0
  134.9590  134.3300  148.8490 N   0  0  0  0  0  4  0  0  0  0  0  0
  135.2320  134.7790  149.7230 H   0  0  0  0  0  0  0  0  0  0  0  0
  135.7200  133.8050  148.4170 H   0  0  0  0  0  0  0  0  0  0  0  0
  133.8910  133.3540  149.1470 C   0  0  0  0  0  0  0  0  0  0  0  0
  132.5870  133.6950  148.4030 C   0  0  0  0  0  1  0  0  0  0  0  0
  134.3780  131.9740  148.6640 C   0  0  0  0  0  1  0  0  0  0  0  0
  133.6360  133.2740  150.6600 C   0  0  0  0  0  1  0  0  0  0  0  0
  1  9  1  0  0  0  0
  2  1  1  0  0  0  0
  3  2  2  0  0  0  0
  4  5  2  0  0  0  0
  4  3  1  0  0  0  0
  5  6  1  0  0  0  0
  6  1  2  0  0  0  0
  7  8  1  0  0  0  0
  7  5  1  0  0  0  0
  9 12  1  0  0  0  0
 10 14  1  0  0  0  0
 11 10  2  0  0  0  0
 12 13  1  0  0  0  0
 12 10  1  0  0  0  0
 15 16  1  0  0  0  0
 16 14  1  0  0  0  0
 17  4  1  0  0  0  0
 18 19  1  0  0  0  0
 18 17  1  0  0  0  0
 19 22  1  6  0  0  0
 20 19  1  0  0  0  0
 21 20  1  0  0  0  0
 22 23  1  0  0  0  0
 23 26  1  0  0  0  0
 23 24  1  0  0  0  0
 25 23  1  0  0  0  0
 26 29  1  0  0  0  0
 27 26  1  0  0  0  0
 28 26  1  0  0  0  0
M  END
>  <MODEL>
5

>  <REMARK>
 VINA RESULT:    -6.458      3.357      4.491
 INTER + INTRA:         -11.815
 INTER:                 -10.591
 INTRA:                  -1.225
 UNBOUND:                -1.015
  Name = CHEMBL3275051
  17 active torsions:
  status: ('A' for Active; 'I' for Inactive)
    1  A    between atoms: C_1  and  C_2
    2  A    between atoms: C_2  and  C_3
    3  A    between atoms: C_3  and  C_4
    4  A    between atoms: N_6  and  C_7
    5  A    between atoms: C_7  and  C_8
    6  A    between atoms: C_11  and  O_12
    7  A    between atoms: O_12  and  C_13
    8  A    between atoms: C_13  and  C_14
    9  A    between atoms: C_14  and  O_15
   10  A    between atoms: C_14  and  C_16
   11  A    between atoms: C_16  and  N_17
   12  A    between atoms: N_17  and  C_18
   13  A    between atoms: C_18  and  C_19
   14  A    between atoms: C_18  and  C_20
   15  A    between atoms: C_18  and  C_21
   16  A    between atoms: C_22  and  O_23
   17  A    between atoms: O_23  and  C_24
                            x       y       z     vdW  Elec       q    Type
                         _______ _______ _______ _____ _____    ______ ____

>  <TORSDO>
F 12

>  <SCORE>
-6.458

>  <RMSD_LB>
3.357

>  <RMSD_UB>
4.491

$$$$
CHEMBL3275051
 OpenBabel10162523403D

 29 29  0  0  1  0  0  0  0  0999 V2000
  140.4580  138.1590  153.4450 C   0  0  0  0  0  0  0  0  0  0  0  0
  141.5710  138.3480  154.2660 C   0  0  0  0  0  3  0  0  0  0  0  0
  142.8550  138.0940  153.7910 C   0  0  0  0  0  3  0  0  0  0  0  0
  143.0590  137.6390  152.4810 C   0  0  0  0  0  0  0  0  0  0  0  0
  141.9470  137.4480  151.6430 C   0  0  0  0  0  0  0  0  0  0  0  0
  140.6600  137.7330  152.1210 C   0  0  0  0  0  3  0  0  0  0  0  0
  141.9590  137.0250  150.3350 O   0  0  0  0  0  0  0  0  0  0  0  0
  140.7010  136.7820  149.7200 C   0  0  0  0  0  1  0  0  0  0  0  0
  139.0680  138.3950  153.9700 C   0  0  0  0  0  2  0  0  0  0  0  0
  137.7600  138.0490  155.9970 C   0  0  0  0  0  0  0  0  0  0  0  0
  136.9420  138.9020  155.6650 O   0  0  0  0  0  0  0  0  0  0  0  0
  138.8320  137.6940  155.2100 N   0  0  0  0  0  0  0  0  0  0  0  0
  139.4340  136.9670  155.4900 H   0  0  0  0  0  0  0  0  0  0  0  0
  137.6610  137.3100  157.3130 C   0  0  0  0  0  2  0  0  0  0  0  0
  136.4530  135.4070  158.4750 C   0  0  0  0  0  1  0  0  0  0  0  0
  137.0510  135.9190  157.1730 C   0  0  0  0  0  2  0  0  0  0  0  0
  144.2900  137.3860  151.9600 O   0  0  0  0  0  0  0  0  0  0  0  0
  145.2740  138.4210  151.9580 C   0  0  0  0  0  2  0  0  0  0  0  0
  145.0880  139.2070  150.6560 C   0  0  1  0  0  3  0  0  0  0  0  0
  144.1220  140.2490  150.8590 O   0  0  0  0  0  0  0  0  0  0  0  0
  143.2290  139.8910  150.7370 H   0  0  0  0  0  0  0  0  0  0  0  0
  146.4040  139.8470  150.1860 C   0  0  0  0  0  2  0  0  0  0  0  0
  147.2530  140.2950  151.2990 N   0  0  0  0  0  4  0  0  0  0  0  0
  148.1750  139.8750  151.1850 H   0  0  0  0  0  0  0  0  0  0  0  0
  146.7860  140.0040  152.1570 H   0  0  0  0  0  0  0  0  0  0  0  0
  147.4210  141.7600  151.3860 C   0  0  0  0  0  0  0  0  0  0  0  0
  146.8650  142.4720  150.1400 C   0  0  0  0  0  1  0  0  0  0  0  0
  146.6270  142.2440  152.6150 C   0  0  0  0  0  1  0  0  0  0  0  0
  148.8990  142.1250  151.5920 C   0  0  0  0  0  1  0  0  0  0  0  0
  1  9  1  0  0  0  0
  1  2  1  0  0  0  0
  3  2  2  0  0  0  0
  4  3  1  0  0  0  0
  5  6  1  0  0  0  0
  5  4  2  0  0  0  0
  6  1  2  0  0  0  0
  7  5  1  0  0  0  0
  8  7  1  0  0  0  0
  9 12  1  0  0  0  0
 10 14  1  0  0  0  0
 11 10  2  0  0  0  0
 12 13  1  0  0  0  0
 12 10  1  0  0  0  0
 16 14  1  0  0  0  0
 16 15  1  0  0  0  0
 17  4  1  0  0  0  0
 18 17  1  0  0  0  0
 19 22  1  1  0  0  0
 19 20  1  0  0  0  0
 19 18  1  0  0  0  0
 21 20  1  0  0  0  0
 22 23  1  0  0  0  0
 23 26  1  0  0  0  0
 23 25  1  0  0  0  0
 24 23  1  0  0  0  0
 26 29  1  0  0  0  0
 26 28  1  0  0  0  0
 27 26  1  0  0  0  0
M  END
>  <MODEL>
6

>  <REMARK>
 VINA RESULT:    -6.454      8.294     10.512
 INTER + INTRA:         -11.808
 INTER:                 -10.933
 INTRA:                  -0.876
 UNBOUND:                -1.015
  Name = CHEMBL3275051
  17 active torsions:
  status: ('A' for Active; 'I' for Inactive)
    1  A    between atoms: C_1  and  C_2
    2  A    between atoms: C_2  and  C_3
    3  A    between atoms: C_3  and  C_4
    4  A    between atoms: N_6  and  C_7
    5  A    between atoms: C_7  and  C_8
    6  A    between atoms: C_11  and  O_12
    7  A    between atoms: O_12  and  C_13
    8  A    between atoms: C_13  and  C_14
    9  A    between atoms: C_14  and  O_15
   10  A    between atoms: C_14  and  C_16
   11  A    between atoms: C_16  and  N_17
   12  A    between atoms: N_17  and  C_18
   13  A    between atoms: C_18  and  C_19
   14  A    between atoms: C_18  and  C_20
   15  A    between atoms: C_18  and  C_21
   16  A    between atoms: C_22  and  O_23
   17  A    between atoms: O_23  and  C_24
                            x       y       z     vdW  Elec       q    Type
                         _______ _______ _______ _____ _____    ______ ____

>  <TORSDO>
F 12

>  <SCORE>
-6.454

>  <RMSD_LB>
8.294

>  <RMSD_UB>
10.512

$$$$
CHEMBL3275051
 OpenBabel10162523403D

 29 29  0  0  1  0  0  0  0  0999 V2000
  138.0920  137.5000  154.9650 C   0  0  0  0  0  0  0  0  0  0  0  0
  139.1240  137.6930  155.8850 C   0  0  0  0  0  3  0  0  0  0  0  0
  140.3670  138.1620  155.4700 C   0  0  0  0  0  3  0  0  0  0  0  0
  140.6120  138.4460  154.1190 C   0  0  0  0  0  0  0  0  0  0  0  0
  139.5810  138.2600  153.1830 C   0  0  0  0  0  0  0  0  0  0  0  0
  138.3240  137.8140  153.6140 C   0  0  0  0  0  3  0  0  0  0  0  0
  139.6370  138.5000  151.8310 O   0  0  0  0  0  0  0  0  0  0  0  0
  140.0330  137.4210  150.9950 C   0  0  0  0  0  1  0  0  0  0  0  0
  136.7610  136.9560  155.4070 C   0  0  0  0  0  2  0  0  0  0  0  0
  135.2300  135.5620  154.1240 C   0  0  0  0  0  0  0  0  0  0  0  0
  134.4130  136.4730  154.0270 O   0  0  0  0  0  0  0  0  0  0  0  0
  136.4440  135.7080  154.7560 N   0  0  0  0  0  0  0  0  0  0  0  0
  137.0910  134.9660  154.7630 H   0  0  0  0  0  0  0  0  0  0  0  0
  134.9680  134.1860  153.5530 C   0  0  0  0  0  2  0  0  0  0  0  0
  135.8980  134.4040  151.2020 C   0  0  0  0  0  1  0  0  0  0  0  0
  134.6550  134.2080  152.0600 C   0  0  0  0  0  2  0  0  0  0  0  0
  141.8030  138.9170  153.6570 O   0  0  0  0  0  0  0  0  0  0  0  0
  143.0160  138.4440  154.2460 C   0  0  0  0  0  2  0  0  0  0  0  0
  143.7350  139.6680  154.8210 C   0  0  1  0  0  3  0  0  0  0  0  0
  143.6100  139.6680  156.2520 O   0  0  0  0  0  0  0  0  0  0  0  0
  142.7710  140.0850  156.5030 H   0  0  0  0  0  0  0  0  0  0  0  0
  145.2300  139.6680  154.4640 C   0  0  0  0  0  2  0  0  0  0  0  0
  145.8420  141.0010  154.5600 N   0  0  0  0  0  4  0  0  0  0  0  0
  146.2800  141.0850  155.4760 H   0  0  0  0  0  0  0  0  0  0  0  0
  145.0920  141.6770  154.4130 H   0  0  0  0  0  0  0  0  0  0  0  0
  146.8650  141.2770  153.5310 C   0  0  0  0  0  0  0  0  0  0  0  0
  147.2370  140.0080  152.7430 C   0  0  0  0  0  1  0  0  0  0  0  0
  146.2670  142.3010  152.5470 C   0  0  0  0  0  1  0  0  0  0  0  0
  148.1200  141.8950  154.1670 C   0  0  0  0  0  1  0  0  0  0  0  0
  1  9  1  0  0  0  0
  1  2  1  0  0  0  0
  3  2  2  0  0  0  0
  4  3  1  0  0  0  0
  5  6  1  0  0  0  0
  5  4  2  0  0  0  0
  6  1  2  0  0  0  0
  7  5  1  0  0  0  0
  8  7  1  0  0  0  0
 10 12  1  0  0  0  0
 11 10  2  0  0  0  0
 12 13  1  0  0  0  0
 12  9  1  0  0  0  0
 14 10  1  0  0  0  0
 15 16  1  0  0  0  0
 16 14  1  0  0  0  0
 17  4  1  0  0  0  0
 17 18  1  0  0  0  0
 19 18  1  1  0  0  0
 19 20  1  0  0  0  0
 20 21  1  0  0  0  0
 22 23  1  0  0  0  0
 22 19  1  0  0  0  0
 23 24  1  0  0  0  0
 25 23  1  0  0  0  0
 26 29  1  0  0  0  0
 26 23  1  0  0  0  0
 27 26  1  0  0  0  0
 28 26  1  0  0  0  0
M  END
>  <MODEL>
7

>  <REMARK>
 VINA RESULT:    -6.450      6.688     10.538
 INTER + INTRA:         -11.801
 INTER:                 -10.969
 INTRA:                  -0.831
 UNBOUND:                -1.015
  Name = CHEMBL3275051
  17 active torsions:
  status: ('A' for Active; 'I' for Inactive)
    1  A    between atoms: C_1  and  C_2
    2  A    between atoms: C_2  and  C_3
    3  A    between atoms: C_3  and  C_4
    4  A    between atoms: N_6  and  C_7
    5  A    between atoms: C_7  and  C_8
    6  A    between atoms: C_11  and  O_12
    7  A    between atoms: O_12  and  C_13
    8  A    between atoms: C_13  and  C_14
    9  A    between atoms: C_14  and  O_15
   10  A    between atoms: C_14  and  C_16
   11  A    between atoms: C_16  and  N_17
   12  A    between atoms: N_17  and  C_18
   13  A    between atoms: C_18  and  C_19
   14  A    between atoms: C_18  and  C_20
   15  A    between atoms: C_18  and  C_21
   16  A    between atoms: C_22  and  O_23
   17  A    between atoms: O_23  and  C_24
                            x       y       z     vdW  Elec       q    Type
                         _______ _______ _______ _____ _____    ______ ____

>  <TORSDO>
F 12

>  <SCORE>
-6.450

>  <RMSD_LB>
6.688

>  <RMSD_UB>
10.538

$$$$
CHEMBL3275051
 OpenBabel10162523403D

 29 29  0  0  1  0  0  0  0  0999 V2000
  140.2740  138.1850  153.2050 C   0  0  0  0  0  0  0  0  0  0  0  0
  141.1290  138.4470  154.2770 C   0  0  0  0  0  3  0  0  0  0  0  0
  142.4900  138.1700  154.1850 C   0  0  0  0  0  3  0  0  0  0  0  0
  143.0320  137.6190  153.0160 C   0  0  0  0  0  0  0  0  0  0  0  0
  142.1840  137.3530  151.9280 C   0  0  0  0  0  0  0  0  0  0  0  0
  140.8190  137.6610  152.0200 C   0  0  0  0  0  3  0  0  0  0  0  0
  142.5410  136.8320  150.7070 O   0  0  0  0  0  0  0  0  0  0  0  0
  142.9100  137.7530  149.6910 C   0  0  0  0  0  1  0  0  0  0  0  0
  138.7970  138.4470  153.3190 C   0  0  0  0  0  2  0  0  0  0  0  0
  137.3020  137.7840  155.1260 C   0  0  0  0  0  0  0  0  0  0  0  0
  137.0560  138.9530  155.4080 O   0  0  0  0  0  0  0  0  0  0  0  0
  138.1240  137.4230  154.0820 N   0  0  0  0  0  0  0  0  0  0  0  0
  138.2520  136.4730  153.8570 H   0  0  0  0  0  0  0  0  0  0  0  0
  136.7200  136.6300  155.9100 C   0  0  0  0  0  2  0  0  0  0  0  0
  136.7090  135.5010  158.1820 C   0  0  0  0  0  1  0  0  0  0  0  0
  137.5170  136.2990  157.1680 C   0  0  0  0  0  2  0  0  0  0  0  0
  144.3550  137.3380  152.8650 O   0  0  0  0  0  0  0  0  0  0  0  0
  145.1520  137.0880  154.0230 C   0  0  0  0  0  2  0  0  0  0  0  0
  145.8560  138.4050  154.3680 C   0  0  1  0  0  3  0  0  0  0  0  0
  146.8850  138.1580  155.3390 O   0  0  0  0  0  0  0  0  0  0  0  0
  146.5790  138.4460  156.2150 H   0  0  0  0  0  0  0  0  0  0  0  0
  146.5000  139.0480  153.1290 C   0  0  0  0  0  2  0  0  0  0  0  0
  145.6910  140.1340  152.5610 N   0  0  0  0  0  4  0  0  0  0  0  0
  144.8600  140.2500  153.1400 H   0  0  0  0  0  0  0  0  0  0  0  0
  145.4720  139.8630  151.6020 H   0  0  0  0  0  0  0  0  0  0  0  0
  146.3850  141.4350  152.4830 C   0  0  0  0  0  0  0  0  0  0  0  0
  146.6630  142.0160  153.8810 C   0  0  0  0  0  1  0  0  0  0  0  0
  147.7360  141.1970  151.7790 C   0  0  0  0  0  1  0  0  0  0  0  0
  145.5730  142.4330  151.6430 C   0  0  0  0  0  1  0  0  0  0  0  0
  1  9  1  0  0  0  0
  1  2  1  0  0  0  0
  3  2  2  0  0  0  0
  4  3  1  0  0  0  0
  5  6  1  0  0  0  0
  5  4  2  0  0  0  0
  6  1  2  0  0  0  0
  7  5  1  0  0  0  0
  8  7  1  0  0  0  0
  9 12  1  0  0  0  0
 10 11  2  0  0  0  0
 10 14  1  0  0  0  0
 12 10  1  0  0  0  0
 13 12  1  0  0  0  0
 14 16  1  0  0  0  0
 16 15  1  0  0  0  0
 17  4  1  0  0  0  0
 17 18  1  0  0  0  0
 18 19  1  0  0  0  0
 19 22  1  6  0  0  0
 19 20  1  0  0  0  0
 20 21  1  0  0  0  0
 23 22  1  0  0  0  0
 23 24  1  0  0  0  0
 25 23  1  0  0  0  0
 26 23  1  0  0  0  0
 26 27  1  0  0  0  0
 28 26  1  0  0  0  0
 29 26  1  0  0  0  0
M  END
>  <MODEL>
8

>  <REMARK>
 VINA RESULT:    -6.444      7.792     10.777
 INTER + INTRA:         -11.792
 INTER:                 -10.878
 INTRA:                  -0.914
 UNBOUND:                -1.015
  Name = CHEMBL3275051
  17 active torsions:
  status: ('A' for Active; 'I' for Inactive)
    1  A    between atoms: C_1  and  C_2
    2  A    between atoms: C_2  and  C_3
    3  A    between atoms: C_3  and  C_4
    4  A    between atoms: N_6  and  C_7
    5  A    between atoms: C_7  and  C_8
    6  A    between atoms: C_11  and  O_12
    7  A    between atoms: O_12  and  C_13
    8  A    between atoms: C_13  and  C_14
    9  A    between atoms: C_14  and  O_15
   10  A    between atoms: C_14  and  C_16
   11  A    between atoms: C_16  and  N_17
   12  A    between atoms: N_17  and  C_18
   13  A    between atoms: C_18  and  C_19
   14  A    between atoms: C_18  and  C_20
   15  A    between atoms: C_18  and  C_21
   16  A    between atoms: C_22  and  O_23
   17  A    between atoms: O_23  and  C_24
                            x       y       z     vdW  Elec       q    Type
                         _______ _______ _______ _____ _____    ______ ____

>  <TORSDO>
F 12

>  <SCORE>
-6.444

>  <RMSD_LB>
7.792

>  <RMSD_UB>
10.777

$$$$
CHEMBL3275051
 OpenBabel10162523403D

 29 29  0  0  1  0  0  0  0  0999 V2000
  140.4050  138.4110  153.8030 C   0  0  0  0  0  0  0  0  0  0  0  0
  140.6970  137.7850  152.5910 C   0  0  0  0  0  3  0  0  0  0  0  0
  141.9990  137.7600  152.0990 C   0  0  0  0  0  3  0  0  0  0  0  0
  143.0450  138.3670  152.8080 C   0  0  0  0  0  0  0  0  0  0  0  0
  142.7650  138.9990  154.0310 C   0  0  0  0  0  0  0  0  0  0  0  0
  141.4550  138.9940  154.5330 C   0  0  0  0  0  3  0  0  0  0  0  0
  143.6610  139.6270  154.8630 O   0  0  0  0  0  0  0  0  0  0  0  0
  143.1950  140.0130  156.1480 C   0  0  0  0  0  1  0  0  0  0  0  0
  138.9910  138.4720  154.3150 C   0  0  0  0  0  2  0  0  0  0  0  0
  137.4780  137.3610  155.8690 C   0  0  0  0  0  0  0  0  0  0  0  0
  136.5520  138.1100  155.5680 O   0  0  0  0  0  0  0  0  0  0  0  0
  138.7190  137.4320  155.2780 N   0  0  0  0  0  0  0  0  0  0  0  0
  139.4170  136.7770  155.5100 H   0  0  0  0  0  0  0  0  0  0  0  0
  137.3330  136.2890  156.9250 C   0  0  0  0  0  2  0  0  0  0  0  0
  137.7300  137.8620  158.8760 C   0  0  0  0  0  1  0  0  0  0  0  0
  136.8050  136.8260  158.2530 C   0  0  0  0  0  2  0  0  0  0  0  0
  144.3380  138.3650  152.3830 O   0  0  0  0  0  0  0  0  0  0  0  0
  145.2450  137.3980  152.9130 C   0  0  0  0  0  2  0  0  0  0  0  0
  146.6570  137.9570  152.7100 C   0  0  1  0  0  3  0  0  0  0  0  0
  147.0890  137.6910  151.3670 O   0  0  0  0  0  0  0  0  0  0  0  0
  146.7220  138.3630  150.7700 H   0  0  0  0  0  0  0  0  0  0  0  0
  146.7070  139.4750  152.9450 C   0  0  0  0  0  2  0  0  0  0  0  0
  146.4760  140.2530  151.7200 N   0  0  0  0  0  4  0  0  0  0  0  0
  145.4840  140.2000  151.4910 H   0  0  0  0  0  0  0  0  0  0  0  0
  147.0730  139.8470  151.0000 H   0  0  0  0  0  0  0  0  0  0  0  0
  146.8500  141.6790  151.8240 C   0  0  0  0  0  0  0  0  0  0  0  0
  148.3620  141.8860  151.6200 C   0  0  0  0  0  1  0  0  0  0  0  0
  146.1020  142.4350  150.7080 C   0  0  0  0  0  1  0  0  0  0  0  0
  146.4110  142.2570  153.1780 C   0  0  0  0  0  1  0  0  0  0  0  0
  1  9  1  0  0  0  0
  1  6  1  0  0  0  0
  2  1  2  0  0  0  0
  3  2  1  0  0  0  0
  3  4  2  0  0  0  0
  4  5  1  0  0  0  0
  5  6  2  0  0  0  0
  5  7  1  0  0  0  0
  7  8  1  0  0  0  0
  9 12  1  0  0  0  0
 10 14  1  0  0  0  0
 11 10  2  0  0  0  0
 12 13  1  0  0  0  0
 12 10  1  0  0  0  0
 14 16  1  0  0  0  0
 16 15  1  0  0  0  0
 17  4  1  0  0  0  0
 17 18  1  0  0  0  0
 19 18  1  6  0  0  0
 19 22  1  0  0  0  0
 20 19  1  0  0  0  0
 21 20  1  0  0  0  0
 23 26  1  0  0  0  0
 23 22  1  0  0  0  0
 24 23  1  0  0  0  0
 25 23  1  0  0  0  0
 26 29  1  0  0  0  0
 27 26  1  0  0  0  0
 28 26  1  0  0  0  0
M  END
>  <MODEL>
9

>  <REMARK>
 VINA RESULT:    -6.244      8.127     11.061
 INTER + INTRA:         -11.457
 INTER:                 -10.442
 INTRA:                  -1.015
 UNBOUND:                -1.015
  Name = CHEMBL3275051
  17 active torsions:
  status: ('A' for Active; 'I' for Inactive)
    1  A    between atoms: C_1  and  C_2
    2  A    between atoms: C_2  and  C_3
    3  A    between atoms: C_3  and  C_4
    4  A    between atoms: N_6  and  C_7
    5  A    between atoms: C_7  and  C_8
    6  A    between atoms: C_11  and  O_12
    7  A    between atoms: O_12  and  C_13
    8  A    between atoms: C_13  and  C_14
    9  A    between atoms: C_14  and  O_15
   10  A    between atoms: C_14  and  C_16
   11  A    between atoms: C_16  and  N_17
   12  A    between atoms: N_17  and  C_18
   13  A    between atoms: C_18  and  C_19
   14  A    between atoms: C_18  and  C_20
   15  A    between atoms: C_18  and  C_21
   16  A    between atoms: C_22  and  O_23
   17  A    between atoms: O_23  and  C_24
                            x       y       z     vdW  Elec       q    Type
                         _______ _______ _______ _____ _____    ______ ____

>  <TORSDO>
F 12

>  <SCORE>
-6.244

>  <RMSD_LB>
8.127

>  <RMSD_UB>
11.061

$$$$
