CHEMBL564684
 OpenBabel10172500283D

 30 31  0  0  1  0  0  0  0  0999 V2000
  144.4590  138.3320  149.5300 C   0  0  0  0  0  2  0  0  0  0  0  0
  143.2970  137.4090  149.2270 C   0  0  0  0  0  0  0  0  0  0  0  0
  142.8050  137.3880  148.0950 O   0  0  0  0  0  0  0  0  0  0  0  0
  142.7010  136.6150  150.3710 C   0  0  0  0  0  2  0  0  0  0  0  0
  142.8590  137.3670  151.6870 C   0  0  0  0  0  2  0  0  0  0  0  0
  140.2200  138.2460  154.3020 C   0  0  0  0  0  0  0  0  0  0  0  0
  141.4520  137.9820  153.6950 C   0  0  0  0  0  3  0  0  0  0  0  0
  141.5300  137.6820  152.3240 C   0  0  0  0  0  0  0  0  0  0  0  0
  140.3600  137.6790  151.5550 C   0  0  0  0  0  3  0  0  0  0  0  0
  139.1260  137.9400  152.1490 C   0  0  0  0  0  3  0  0  0  0  0  0
  139.0610  138.2150  153.5140 C   0  0  0  0  0  0  0  0  0  0  0  0
  140.2010  137.4720  156.5580 C   0  0  0  0  0  1  0  0  0  0  0  0
  140.0430  138.5350  155.6300 O   0  0  0  0  0  0  0  0  0  0  0  0
  137.8460  138.4540  154.1000 O   0  0  0  0  0  0  0  0  0  0  0  0
  137.4020  139.2650  153.9450 H   0  0  0  0  0  0  0  0  0  0  0  0
  144.1120  139.7850  149.1990 C   0  0  1  0  0  3  0  0  0  0  0  0
  142.7020  139.9910  149.2890 O   0  0  0  0  0  0  0  0  0  0  0  0
  142.5250  140.8030  149.7880 H   0  0  0  0  0  0  0  0  0  0  0  0
  144.8260  140.8310  150.0630 C   0  0  0  0  0  2  0  0  0  0  0  0
  144.3870  140.7740  151.5270 C   0  0  0  0  0  2  0  0  0  0  0  0
  145.5500  140.8470  152.4780 C   0  0  0  0  0  0  0  0  0  0  0  0
  146.5010  141.8600  152.3560 C   0  0  0  0  0  3  0  0  0  0  0  0
  147.5850  141.9130  153.2340 C   0  0  0  0  0  3  0  0  0  0  0  0
  147.7230  140.9580  154.2480 C   0  0  0  0  0  0  0  0  0  0  0  0
  146.7760  139.9390  154.3940 C   0  0  0  0  0  0  0  0  0  0  0  0
  145.6940  139.8990  153.5030 C   0  0  0  0  0  3  0  0  0  0  0  0
  148.8050  141.0540  155.0780 O   0  0  0  0  0  0  0  0  0  0  0  0
  148.7090  140.8810  155.9940 H   0  0  0  0  0  0  0  0  0  0  0  0
  146.7410  138.9280  155.3150 O   0  0  0  0  0  0  0  0  0  0  0  0
  147.4670  137.7410  155.0330 C   0  0  0  0  0  1  0  0  0  0  0  0
  2  1  1  0  0  0  0
  2  4  1  0  0  0  0
  3  2  2  0  0  0  0
  4  5  1  0  0  0  0
  5  8  1  0  0  0  0
  6 13  1  0  0  0  0
  7  6  1  0  0  0  0
  8  7  2  0  0  0  0
  9 10  2  0  0  0  0
  9  8  1  0  0  0  0
 10 11  1  0  0  0  0
 11 14  1  0  0  0  0
 11  6  2  0  0  0  0
 13 12  1  0  0  0  0
 15 14  1  0  0  0  0
 16 17  1  0  0  0  0
 16  1  1  1  0  0  0
 16 19  1  0  0  0  0
 17 18  1  0  0  0  0
 19 20  1  0  0  0  0
 20 21  1  0  0  0  0
 21 26  1  0  0  0  0
 22 21  2  0  0  0  0
 22 23  1  0  0  0  0
 23 24  2  0  0  0  0
 24 25  1  0  0  0  0
 24 27  1  0  0  0  0
 25 29  1  0  0  0  0
 26 25  2  0  0  0  0
 27 28  1  0  0  0  0
 30 29  1  0  0  0  0
M  END
>  <MODEL>
1

>  <REMARK>
 VINA RESULT:    -7.271      0.000      0.000
 INTER + INTRA:         -13.561
 INTER:                 -11.676
 INTRA:                  -1.885
 UNBOUND:                -1.402
  Name = CHEMBL564684
  15 active torsions:
  status: ('A' for Active; 'I' for Inactive)
    1  A    between atoms: C_1  and  O_2
    2  A    between atoms: O_2  and  C_3
    3  A    between atoms: C_5  and  C_6
    4  A    between atoms: C_6  and  C_7
    5  A    between atoms: C_7  and  C_8
    6  A    between atoms: C_8  and  C_10
    7  A    between atoms: C_10  and  C_11
    8  A    between atoms: C_11  and  O_12
    9  A    between atoms: C_11  and  C_13
   10  A    between atoms: C_13  and  C_14
   11  A    between atoms: C_14  and  C_15
   12  A    between atoms: C_18  and  O_19
   13  A    between atoms: C_20  and  O_21
   14  A    between atoms: O_21  and  C_22
   15  A    between atoms: C_26  and  O_27
                            x       y       z     vdW  Elec       q    Type
                         _______ _______ _______ _____ _____    ______ ____

>  <TORSDO>
F 13

>  <SCORE>
-7.271

>  <RMSD_LB>
0.000

>  <RMSD_UB>
0.000

$$$$
CHEMBL564684
 OpenBabel10172500283D

 30 31  0  0  1  0  0  0  0  0999 V2000
  144.4020  139.9790  149.0070 C   0  0  0  0  0  2  0  0  0  0  0  0
  145.7050  140.5190  148.4540 C   0  0  0  0  0  0  0  0  0  0  0  0
  146.1710  140.0530  147.4100 O   0  0  0  0  0  0  0  0  0  0  0  0
  146.4540  141.5490  149.2740 C   0  0  0  0  0  2  0  0  0  0  0  0
  145.7020  141.8620  150.5610 C   0  0  0  0  0  2  0  0  0  0  0  0
  148.1250  140.1110  152.9360 C   0  0  0  0  0  0  0  0  0  0  0  0
  147.3870  140.4360  151.7930 C   0  0  0  0  0  3  0  0  0  0  0  0
  146.5170  141.5390  151.7880 C   0  0  0  0  0  0  0  0  0  0  0  0
  146.4130  142.3380  152.9330 C   0  0  0  0  0  3  0  0  0  0  0  0
  147.1430  142.0230  154.0790 C   0  0  0  0  0  3  0  0  0  0  0  0
  147.9870  140.9130  154.0780 C   0  0  0  0  0  0  0  0  0  0  0  0
  148.4260  137.7470  153.0220 C   0  0  0  0  0  1  0  0  0  0  0  0
  148.9870  139.0510  153.0410 O   0  0  0  0  0  0  0  0  0  0  0  0
  148.6900  140.5950  155.2090 O   0  0  0  0  0  0  0  0  0  0  0  0
  149.4760  140.0880  155.1460 H   0  0  0  0  0  0  0  0  0  0  0  0
  144.4770  138.4670  149.2240 C   0  0  1  0  0  3  0  0  0  0  0  0
  144.7960  137.8050  147.9990 O   0  0  0  0  0  0  0  0  0  0  0  0
  145.5690  137.2360  148.1310 H   0  0  0  0  0  0  0  0  0  0  0  0
  145.4660  138.0180  150.3070 C   0  0  0  0  0  2  0  0  0  0  0  0
  144.8180  137.0970  151.3400 C   0  0  0  0  0  2  0  0  0  0  0  0
  144.0380  137.8560  152.3780 C   0  0  0  0  0  0  0  0  0  0  0  0
  144.6780  138.7690  153.2160 C   0  0  0  0  0  3  0  0  0  0  0  0
  143.9500  139.4590  154.1860 C   0  0  0  0  0  3  0  0  0  0  0  0
  142.5720  139.2510  154.3200 C   0  0  0  0  0  0  0  0  0  0  0  0
  141.9090  138.3480  153.4840 C   0  0  0  0  0  0  0  0  0  0  0  0
  142.6550  137.6610  152.5160 C   0  0  0  0  0  3  0  0  0  0  0  0
  141.9080  139.9510  155.2880 O   0  0  0  0  0  0  0  0  0  0  0  0
  141.1580  139.5750  155.7060 H   0  0  0  0  0  0  0  0  0  0  0  0
  140.5820  138.0160  153.4630 O   0  0  0  0  0  0  0  0  0  0  0  0
  139.8350  138.3140  152.2940 C   0  0  0  0  0  1  0  0  0  0  0  0
  2  1  1  0  0  0  0
  2  4  1  0  0  0  0
  3  2  2  0  0  0  0
  4  5  1  0  0  0  0
  5  8  1  0  0  0  0
  6 13  1  0  0  0  0
  6 11  1  0  0  0  0
  7  6  2  0  0  0  0
  8  7  1  0  0  0  0
  8  9  2  0  0  0  0
  9 10  1  0  0  0  0
 11 10  2  0  0  0  0
 11 14  1  0  0  0  0
 12 13  1  0  0  0  0
 15 14  1  0  0  0  0
 16  1  1  6  0  0  0
 16 19  1  0  0  0  0
 17 18  1  0  0  0  0
 17 16  1  0  0  0  0
 19 20  1  0  0  0  0
 20 21  1  0  0  0  0
 21 26  2  0  0  0  0
 21 22  1  0  0  0  0
 22 23  2  0  0  0  0
 23 24  1  0  0  0  0
 24 27  1  0  0  0  0
 25 24  2  0  0  0  0
 26 25  1  0  0  0  0
 27 28  1  0  0  0  0
 29 25  1  0  0  0  0
 30 29  1  0  0  0  0
M  END
>  <MODEL>
2

>  <REMARK>
 VINA RESULT:    -7.112      1.783      6.358
 INTER + INTRA:         -13.296
 INTER:                 -10.756
 INTRA:                  -2.540
 UNBOUND:                -1.402
  Name = CHEMBL564684
  15 active torsions:
  status: ('A' for Active; 'I' for Inactive)
    1  A    between atoms: C_1  and  O_2
    2  A    between atoms: O_2  and  C_3
    3  A    between atoms: C_5  and  C_6
    4  A    between atoms: C_6  and  C_7
    5  A    between atoms: C_7  and  C_8
    6  A    between atoms: C_8  and  C_10
    7  A    between atoms: C_10  and  C_11
    8  A    between atoms: C_11  and  O_12
    9  A    between atoms: C_11  and  C_13
   10  A    between atoms: C_13  and  C_14
   11  A    between atoms: C_14  and  C_15
   12  A    between atoms: C_18  and  O_19
   13  A    between atoms: C_20  and  O_21
   14  A    between atoms: O_21  and  C_22
   15  A    between atoms: C_26  and  O_27
                            x       y       z     vdW  Elec       q    Type
                         _______ _______ _______ _____ _____    ______ ____

>  <TORSDO>
F 13

>  <SCORE>
-7.112

>  <RMSD_LB>
1.783

>  <RMSD_UB>
6.358

$$$$
CHEMBL564684
 OpenBabel10172500283D

 30 31  0  0  1  0  0  0  0  0999 V2000
  136.7520  136.4250  145.3540 C   0  0  0  0  0  2  0  0  0  0  0  0
  136.6870  135.2580  146.3170 C   0  0  0  0  0  0  0  0  0  0  0  0
  135.9560  134.2950  146.0690 O   0  0  0  0  0  0  0  0  0  0  0  0
  137.4470  135.3690  147.6220 C   0  0  0  0  0  2  0  0  0  0  0  0
  136.5670  134.9510  148.7940 C   0  0  0  0  0  2  0  0  0  0  0  0
  136.4080  136.2520  152.3800 C   0  0  0  0  0  0  0  0  0  0  0  0
  136.1450  135.5120  151.2230 C   0  0  0  0  0  3  0  0  0  0  0  0
  136.8800  135.7320  150.0450 C   0  0  0  0  0  0  0  0  0  0  0  0
  137.9070  136.6840  150.0450 C   0  0  0  0  0  3  0  0  0  0  0  0
  138.1770  137.4280  151.1930 C   0  0  0  0  0  3  0  0  0  0  0  0
  137.4250  137.2150  152.3480 C   0  0  0  0  0  0  0  0  0  0  0  0
  134.3320  135.9230  153.5100 C   0  0  0  0  0  1  0  0  0  0  0  0
  135.7380  136.1180  153.5690 O   0  0  0  0  0  0  0  0  0  0  0  0
  137.6810  137.9580  153.4690 O   0  0  0  0  0  0  0  0  0  0  0  0
  136.9940  138.1340  154.0820 H   0  0  0  0  0  0  0  0  0  0  0  0
  135.4010  137.1350  145.2520 C   0  0  1  0  0  3  0  0  0  0  0  0
  134.4250  136.2630  144.6790 O   0  0  0  0  0  0  0  0  0  0  0  0
  133.9160  136.7440  144.0090 H   0  0  0  0  0  0  0  0  0  0  0  0
  134.8610  137.6890  146.5750 C   0  0  0  0  0  2  0  0  0  0  0  0
  133.3740  137.3910  146.7670 C   0  0  0  0  0  2  0  0  0  0  0  0
  133.1180  136.4750  147.9330 C   0  0  0  0  0  0  0  0  0  0  0  0
  132.8500  136.9990  149.1980 C   0  0  0  0  0  3  0  0  0  0  0  0
  132.6270  136.1430  150.2770 C   0  0  0  0  0  3  0  0  0  0  0  0
  132.6620  134.7550  150.1000 C   0  0  0  0  0  0  0  0  0  0  0  0
  132.9190  134.2090  148.8390 C   0  0  0  0  0  0  0  0  0  0  0  0
  133.1430  135.0820  147.7660 C   0  0  0  0  0  3  0  0  0  0  0  0
  132.4410  133.9620  151.1920 O   0  0  0  0  0  0  0  0  0  0  0  0
  132.7460  134.2320  152.0360 H   0  0  0  0  0  0  0  0  0  0  0  0
  132.9910  132.8920  148.4750 O   0  0  0  0  0  0  0  0  0  0  0  0
  134.2430  132.2340  148.5870 C   0  0  0  0  0  1  0  0  0  0  0  0
  1  2  1  0  0  0  0
  2  4  1  0  0  0  0
  3  2  2  0  0  0  0
  4  5  1  0  0  0  0
  5  8  1  0  0  0  0
  6 13  1  0  0  0  0
  7  6  2  0  0  0  0
  8  9  2  0  0  0  0
  8  7  1  0  0  0  0
  9 10  1  0  0  0  0
 10 11  2  0  0  0  0
 11  6  1  0  0  0  0
 11 14  1  0  0  0  0
 12 13  1  0  0  0  0
 14 15  1  0  0  0  0
 16  1  1  1  0  0  0
 16 19  1  0  0  0  0
 17 16  1  0  0  0  0
 18 17  1  0  0  0  0
 19 20  1  0  0  0  0
 20 21  1  0  0  0  0
 21 22  1  0  0  0  0
 22 23  2  0  0  0  0
 24 23  1  0  0  0  0
 24 27  1  0  0  0  0
 25 24  2  0  0  0  0
 26 21  2  0  0  0  0
 26 25  1  0  0  0  0
 27 28  1  0  0  0  0
 29 30  1  0  0  0  0
 29 25  1  0  0  0  0
M  END
>  <MODEL>
3

>  <REMARK>
 VINA RESULT:    -6.810      7.014     10.948
 INTER + INTRA:         -12.790
 INTER:                 -10.155
 INTRA:                  -2.635
 UNBOUND:                -1.402
  Name = CHEMBL564684
  15 active torsions:
  status: ('A' for Active; 'I' for Inactive)
    1  A    between atoms: C_1  and  O_2
    2  A    between atoms: O_2  and  C_3
    3  A    between atoms: C_5  and  C_6
    4  A    between atoms: C_6  and  C_7
    5  A    between atoms: C_7  and  C_8
    6  A    between atoms: C_8  and  C_10
    7  A    between atoms: C_10  and  C_11
    8  A    between atoms: C_11  and  O_12
    9  A    between atoms: C_11  and  C_13
   10  A    between atoms: C_13  and  C_14
   11  A    between atoms: C_14  and  C_15
   12  A    between atoms: C_18  and  O_19
   13  A    between atoms: C_20  and  O_21
   14  A    between atoms: O_21  and  C_22
   15  A    between atoms: C_26  and  O_27
                            x       y       z     vdW  Elec       q    Type
                         _______ _______ _______ _____ _____    ______ ____

>  <TORSDO>
F 13

>  <SCORE>
-6.810

>  <RMSD_LB>
7.014

>  <RMSD_UB>
10.948

$$$$
CHEMBL564684
 OpenBabel10172500283D

 30 31  0  0  1  0  0  0  0  0999 V2000
  144.4680  139.9900  149.0680 C   0  0  0  0  0  2  0  0  0  0  0  0
  145.7100  140.6520  148.5090 C   0  0  0  0  0  0  0  0  0  0  0  0
  146.2060  140.2420  147.4560 O   0  0  0  0  0  0  0  0  0  0  0  0
  146.3730  141.7360  149.3340 C   0  0  0  0  0  2  0  0  0  0  0  0
  145.6230  141.9480  150.6430 C   0  0  0  0  0  2  0  0  0  0  0  0
  148.0640  140.0880  152.9140 C   0  0  0  0  0  0  0  0  0  0  0  0
  147.3090  140.4590  151.7970 C   0  0  0  0  0  3  0  0  0  0  0  0
  146.4570  141.5760  151.8430 C   0  0  0  0  0  0  0  0  0  0  0  0
  146.3900  142.3410  153.0140 C   0  0  0  0  0  3  0  0  0  0  0  0
  147.1380  141.9800  154.1340 C   0  0  0  0  0  3  0  0  0  0  0  0
  147.9620  140.8570  154.0820 C   0  0  0  0  0  0  0  0  0  0  0  0
  148.3280  137.7170  152.9050 C   0  0  0  0  0  1  0  0  0  0  0  0
  148.9100  139.0110  152.9690 O   0  0  0  0  0  0  0  0  0  0  0  0
  148.6830  140.4940  155.1880 O   0  0  0  0  0  0  0  0  0  0  0  0
  149.4590  139.9750  155.0930 H   0  0  0  0  0  0  0  0  0  0  0  0
  144.7630  138.5640  149.5360 C   0  0  1  0  0  3  0  0  0  0  0  0
  146.1220  138.2230  149.2600 O   0  0  0  0  0  0  0  0  0  0  0  0
  146.5490  137.9130  150.0740 H   0  0  0  0  0  0  0  0  0  0  0  0
  144.4710  138.2960  151.0170 C   0  0  0  0  0  2  0  0  0  0  0  0
  143.6640  137.0150  151.2280 C   0  0  0  0  0  2  0  0  0  0  0  0
  142.1970  137.2850  151.4200 C   0  0  0  0  0  0  0  0  0  0  0  0
  141.7150  137.7270  152.6530 C   0  0  0  0  0  3  0  0  0  0  0  0
  140.3500  137.9620  152.8270 C   0  0  0  0  0  3  0  0  0  0  0  0
  139.4560  137.7680  151.7680 C   0  0  0  0  0  0  0  0  0  0  0  0
  139.9190  137.3340  150.5210 C   0  0  0  0  0  0  0  0  0  0  0  0
  141.2930  137.1000  150.3630 C   0  0  0  0  0  3  0  0  0  0  0  0
  138.1290  138.0090  151.9940 O   0  0  0  0  0  0  0  0  0  0  0  0
  137.4870  137.7050  151.3830 H   0  0  0  0  0  0  0  0  0  0  0  0
  139.2060  137.0920  149.3800 O   0  0  0  0  0  0  0  0  0  0  0  0
  139.4540  137.9110  148.2480 C   0  0  0  0  0  1  0  0  0  0  0  0
  2  1  1  0  0  0  0
  2  4  1  0  0  0  0
  3  2  2  0  0  0  0
  4  5  1  0  0  0  0
  5  8  1  0  0  0  0
  6 13  1  0  0  0  0
  6 11  1  0  0  0  0
  7  8  1  0  0  0  0
  7  6  2  0  0  0  0
  8  9  2  0  0  0  0
  9 10  1  0  0  0  0
 11 10  2  0  0  0  0
 11 14  1  0  0  0  0
 12 13  1  0  0  0  0
 15 14  1  0  0  0  0
 16  1  1  1  0  0  0
 16 19  1  0  0  0  0
 17 16  1  0  0  0  0
 17 18  1  0  0  0  0
 19 20  1  0  0  0  0
 20 21  1  0  0  0  0
 21 22  1  0  0  0  0
 22 23  2  0  0  0  0
 24 27  1  0  0  0  0
 24 23  1  0  0  0  0
 25 24  2  0  0  0  0
 26 25  1  0  0  0  0
 26 21  2  0  0  0  0
 28 27  1  0  0  0  0
 29 25  1  0  0  0  0
 30 29  1  0  0  0  0
M  END
>  <MODEL>
4

>  <REMARK>
 VINA RESULT:    -6.791      1.981      7.408
 INTER + INTRA:         -12.759
 INTER:                 -11.062
 INTRA:                  -1.697
 UNBOUND:                -1.402
  Name = CHEMBL564684
  15 active torsions:
  status: ('A' for Active; 'I' for Inactive)
    1  A    between atoms: C_1  and  O_2
    2  A    between atoms: O_2  and  C_3
    3  A    between atoms: C_5  and  C_6
    4  A    between atoms: C_6  and  C_7
    5  A    between atoms: C_7  and  C_8
    6  A    between atoms: C_8  and  C_10
    7  A    between atoms: C_10  and  C_11
    8  A    between atoms: C_11  and  O_12
    9  A    between atoms: C_11  and  C_13
   10  A    between atoms: C_13  and  C_14
   11  A    between atoms: C_14  and  C_15
   12  A    between atoms: C_18  and  O_19
   13  A    between atoms: C_20  and  O_21
   14  A    between atoms: O_21  and  C_22
   15  A    between atoms: C_26  and  O_27
                            x       y       z     vdW  Elec       q    Type
                         _______ _______ _______ _____ _____    ______ ____

>  <TORSDO>
F 13

>  <SCORE>
-6.791

>  <RMSD_LB>
1.981

>  <RMSD_UB>
7.408

$$$$
CHEMBL564684
 OpenBabel10172500283D

 30 31  0  0  1  0  0  0  0  0999 V2000
  137.7630  134.6790  146.1800 C   0  0  0  0  0  2  0  0  0  0  0  0
  137.9260  134.6310  147.6850 C   0  0  0  0  0  0  0  0  0  0  0  0
  138.7350  133.8500  148.1930 O   0  0  0  0  0  0  0  0  0  0  0  0
  136.9940  135.4770  148.5300 C   0  0  0  0  0  2  0  0  0  0  0  0
  137.5160  135.5890  149.9570 C   0  0  0  0  0  2  0  0  0  0  0  0
  135.3330  135.8260  153.0810 C   0  0  0  0  0  0  0  0  0  0  0  0
  136.3040  136.1090  152.1130 C   0  0  0  0  0  3  0  0  0  0  0  0
  136.4460  135.2940  150.9770 C   0  0  0  0  0  0  0  0  0  0  0  0
  135.5840  134.2050  150.8010 C   0  0  0  0  0  3  0  0  0  0  0  0
  134.6140  133.9120  151.7590 C   0  0  0  0  0  3  0  0  0  0  0  0
  134.4980  134.7160  152.8920 C   0  0  0  0  0  0  0  0  0  0  0  0
  136.0630  136.3900  155.2800 C   0  0  0  0  0  1  0  0  0  0  0  0
  135.1280  136.5520  154.2250 O   0  0  0  0  0  0  0  0  0  0  0  0
  133.5560  134.4180  153.8400 O   0  0  0  0  0  0  0  0  0  0  0  0
  133.6660  133.6680  154.3920 H   0  0  0  0  0  0  0  0  0  0  0  0
  137.0670  133.4210  145.6580 C   0  0  1  0  0  3  0  0  0  0  0  0
  136.9290  132.4600  146.7060 O   0  0  0  0  0  0  0  0  0  0  0  0
  137.4340  131.6630  146.4820 H   0  0  0  0  0  0  0  0  0  0  0  0
  135.6960  133.6600  145.0150 C   0  0  0  0  0  2  0  0  0  0  0  0
  134.5460  133.1940  145.9080 C   0  0  0  0  0  2  0  0  0  0  0  0
  133.9820  134.3080  146.7470 C   0  0  0  0  0  0  0  0  0  0  0  0
  133.3170  134.0270  147.9400 C   0  0  0  0  0  3  0  0  0  0  0  0
  132.7850  135.0650  148.7060 C   0  0  0  0  0  3  0  0  0  0  0  0
  132.9210  136.3950  148.2910 C   0  0  0  0  0  0  0  0  0  0  0  0
  133.5920  136.6990  147.1020 C   0  0  0  0  0  0  0  0  0  0  0  0
  134.1190  135.6450  146.3440 C   0  0  0  0  0  3  0  0  0  0  0  0
  132.3770  137.3720  149.0770 O   0  0  0  0  0  0  0  0  0  0  0  0
  132.7310  138.2400  149.0570 H   0  0  0  0  0  0  0  0  0  0  0  0
  133.8240  137.9240  146.5400 O   0  0  0  0  0  0  0  0  0  0  0  0
  133.0990  138.2710  145.3700 C   0  0  0  0  0  1  0  0  0  0  0  0
  1  2  1  0  0  0  0
  2  3  2  0  0  0  0
  2  4  1  0  0  0  0
  4  5  1  0  0  0  0
  5  8  1  0  0  0  0
  6 13  1  0  0  0  0
  7  6  2  0  0  0  0
  8  7  1  0  0  0  0
  9  8  2  0  0  0  0
  9 10  1  0  0  0  0
 10 11  2  0  0  0  0
 11  6  1  0  0  0  0
 11 14  1  0  0  0  0
 13 12  1  0  0  0  0
 14 15  1  0  0  0  0
 16 19  1  1  0  0  0
 16  1  1  0  0  0  0
 16 17  1  0  0  0  0
 18 17  1  0  0  0  0
 19 20  1  0  0  0  0
 20 21  1  0  0  0  0
 21 22  1  0  0  0  0
 22 23  2  0  0  0  0
 24 23  1  0  0  0  0
 24 27  1  0  0  0  0
 25 24  2  0  0  0  0
 26 21  2  0  0  0  0
 26 25  1  0  0  0  0
 28 27  1  0  0  0  0
 29 25  1  0  0  0  0
 30 29  1  0  0  0  0
M  END
>  <MODEL>
5

>  <REMARK>
 VINA RESULT:    -6.628      8.303     11.178
 INTER + INTRA:         -12.486
 INTER:                 -10.200
 INTRA:                  -2.286
 UNBOUND:                -1.402
  Name = CHEMBL564684
  15 active torsions:
  status: ('A' for Active; 'I' for Inactive)
    1  A    between atoms: C_1  and  O_2
    2  A    between atoms: O_2  and  C_3
    3  A    between atoms: C_5  and  C_6
    4  A    between atoms: C_6  and  C_7
    5  A    between atoms: C_7  and  C_8
    6  A    between atoms: C_8  and  C_10
    7  A    between atoms: C_10  and  C_11
    8  A    between atoms: C_11  and  O_12
    9  A    between atoms: C_11  and  C_13
   10  A    between atoms: C_13  and  C_14
   11  A    between atoms: C_14  and  C_15
   12  A    between atoms: C_18  and  O_19
   13  A    between atoms: C_20  and  O_21
   14  A    between atoms: O_21  and  C_22
   15  A    between atoms: C_26  and  O_27
                            x       y       z     vdW  Elec       q    Type
                         _______ _______ _______ _____ _____    ______ ____

>  <TORSDO>
F 13

>  <SCORE>
-6.628

>  <RMSD_LB>
8.303

>  <RMSD_UB>
11.178

$$$$
CHEMBL564684
 OpenBabel10172500283D

 30 31  0  0  1  0  0  0  0  0999 V2000
  146.6870  139.9750  149.4480 C   0  0  0  0  0  2  0  0  0  0  0  0
  145.5350  139.0110  149.6410 C   0  0  0  0  0  0  0  0  0  0  0  0
  144.6480  138.9300  148.7870 O   0  0  0  0  0  0  0  0  0  0  0  0
  145.4560  138.2500  150.9490 C   0  0  0  0  0  2  0  0  0  0  0  0
  144.1700  137.4360  151.0200 C   0  0  0  0  0  2  0  0  0  0  0  0
  140.9620  138.7150  152.6470 C   0  0  0  0  0  0  0  0  0  0  0  0
  141.8560  138.1810  151.7140 C   0  0  0  0  0  3  0  0  0  0  0  0
  143.2070  137.9830  152.0430 C   0  0  0  0  0  0  0  0  0  0  0  0
  143.6530  138.2970  153.3330 C   0  0  0  0  0  3  0  0  0  0  0  0
  142.7710  138.8320  154.2710 C   0  0  0  0  0  3  0  0  0  0  0  0
  141.4370  139.0440  153.9240 C   0  0  0  0  0  0  0  0  0  0  0  0
  138.7650  137.8340  152.3500 C   0  0  0  0  0  1  0  0  0  0  0  0
  139.6320  138.9560  152.4150 O   0  0  0  0  0  0  0  0  0  0  0  0
  140.5760  139.5840  154.8420 O   0  0  0  0  0  0  0  0  0  0  0  0
  140.8540  139.7140  155.7270 H   0  0  0  0  0  0  0  0  0  0  0  0
  146.2220  141.4260  149.5850 C   0  0  1  0  0  3  0  0  0  0  0  0
  144.8540  141.4730  149.9920 O   0  0  0  0  0  0  0  0  0  0  0  0
  144.6610  142.3410  150.3780 H   0  0  0  0  0  0  0  0  0  0  0  0
  147.0580  142.2840  150.5420 C   0  0  0  0  0  2  0  0  0  0  0  0
  148.1530  141.4770  151.2400 C   0  0  0  0  0  2  0  0  0  0  0  0
  147.6540  140.7820  152.4780 C   0  0  0  0  0  0  0  0  0  0  0  0
  146.6450  141.3560  153.2520 C   0  0  0  0  0  3  0  0  0  0  0  0
  146.1970  140.7120  154.4060 C   0  0  0  0  0  3  0  0  0  0  0  0
  146.7470  139.4840  154.7920 C   0  0  0  0  0  0  0  0  0  0  0  0
  147.7520  138.8870  154.0250 C   0  0  0  0  0  0  0  0  0  0  0  0
  148.1930  139.5480  152.8690 C   0  0  0  0  0  3  0  0  0  0  0  0
  146.2740  138.8980  155.9330 O   0  0  0  0  0  0  0  0  0  0  0  0
  146.8420  138.7820  156.6690 H   0  0  0  0  0  0  0  0  0  0  0  0
  148.4030  137.7030  154.2380 O   0  0  0  0  0  0  0  0  0  0  0  0
  149.5850  137.4450  153.4960 C   0  0  0  0  0  1  0  0  0  0  0  0
  1  2  1  0  0  0  0
  2  4  1  0  0  0  0
  3  2  2  0  0  0  0
  4  5  1  0  0  0  0
  5  8  1  0  0  0  0
  6 11  1  0  0  0  0
  7  8  1  0  0  0  0
  7  6  2  0  0  0  0
  8  9  2  0  0  0  0
  9 10  1  0  0  0  0
 11 10  2  0  0  0  0
 11 14  1  0  0  0  0
 12 13  1  0  0  0  0
 13  6  1  0  0  0  0
 14 15  1  0  0  0  0
 16  1  1  1  0  0  0
 16 17  1  0  0  0  0
 16 19  1  0  0  0  0
 17 18  1  0  0  0  0
 19 20  1  0  0  0  0
 20 21  1  0  0  0  0
 21 26  2  0  0  0  0
 21 22  1  0  0  0  0
 22 23  2  0  0  0  0
 23 24  1  0  0  0  0
 24 27  1  0  0  0  0
 25 29  1  0  0  0  0
 25 24  2  0  0  0  0
 26 25  1  0  0  0  0
 27 28  1  0  0  0  0
 30 29  1  0  0  0  0
M  END
>  <MODEL>
6

>  <REMARK>
 VINA RESULT:    -6.571      1.775      2.775
 INTER + INTRA:         -12.390
 INTER:                 -10.289
 INTRA:                  -2.102
 UNBOUND:                -1.402
  Name = CHEMBL564684
  15 active torsions:
  status: ('A' for Active; 'I' for Inactive)
    1  A    between atoms: C_1  and  O_2
    2  A    between atoms: O_2  and  C_3
    3  A    between atoms: C_5  and  C_6
    4  A    between atoms: C_6  and  C_7
    5  A    between atoms: C_7  and  C_8
    6  A    between atoms: C_8  and  C_10
    7  A    between atoms: C_10  and  C_11
    8  A    between atoms: C_11  and  O_12
    9  A    between atoms: C_11  and  C_13
   10  A    between atoms: C_13  and  C_14
   11  A    between atoms: C_14  and  C_15
   12  A    between atoms: C_18  and  O_19
   13  A    between atoms: C_20  and  O_21
   14  A    between atoms: O_21  and  C_22
   15  A    between atoms: C_26  and  O_27
                            x       y       z     vdW  Elec       q    Type
                         _______ _______ _______ _____ _____    ______ ____

>  <TORSDO>
F 13

>  <SCORE>
-6.571

>  <RMSD_LB>
1.775

>  <RMSD_UB>
2.775

$$$$
CHEMBL564684
 OpenBabel10172500283D

 30 31  0  0  1  0  0  0  0  0999 V2000
  145.7160  139.3730  151.7860 C   0  0  0  0  0  2  0  0  0  0  0  0
  144.9410  140.4510  151.0560 C   0  0  0  0  0  0  0  0  0  0  0  0
  145.1720  141.6400  151.2880 O   0  0  0  0  0  0  0  0  0  0  0  0
  143.8160  140.0200  150.1380 C   0  0  0  0  0  2  0  0  0  0  0  0
  144.3710  139.3640  148.8790 C   0  0  0  0  0  2  0  0  0  0  0  0
  142.5660  136.0490  148.3060 C   0  0  0  0  0  0  0  0  0  0  0  0
  142.8570  137.4170  148.3250 C   0  0  0  0  0  3  0  0  0  0  0  0
  144.0800  137.8860  148.8340 C   0  0  0  0  0  0  0  0  0  0  0  0
  145.0280  136.9660  149.2980 C   0  0  0  0  0  3  0  0  0  0  0  0
  144.7480  135.6000  149.2850 C   0  0  0  0  0  3  0  0  0  0  0  0
  143.5220  135.1500  148.7970 C   0  0  0  0  0  0  0  0  0  0  0  0
  140.2310  135.6820  148.6300 C   0  0  0  0  0  1  0  0  0  0  0  0
  141.3990  135.4990  147.8420 O   0  0  0  0  0  0  0  0  0  0  0  0
  143.2420  133.8090  148.8000 O   0  0  0  0  0  0  0  0  0  0  0  0
  143.7290  133.2270  148.2500 H   0  0  0  0  0  0  0  0  0  0  0  0
  145.3730  139.3580  153.2770 C   0  0  1  0  0  3  0  0  0  0  0  0
  144.4620  140.4130  153.5870 O   0  0  0  0  0  0  0  0  0  0  0  0
  143.5970  140.2190  153.1950 H   0  0  0  0  0  0  0  0  0  0  0  0
  144.8000  138.0330  153.7940 C   0  0  0  0  0  2  0  0  0  0  0  0
  143.9940  137.2930  152.7270 C   0  0  0  0  0  2  0  0  0  0  0  0
  142.5190  137.5710  152.8240 C   0  0  0  0  0  0  0  0  0  0  0  0
  141.6980  137.4350  151.7050 C   0  0  0  0  0  3  0  0  0  0  0  0
  140.3330  137.7090  151.8000 C   0  0  0  0  0  3  0  0  0  0  0  0
  139.7740  138.1120  153.0180 C   0  0  0  0  0  0  0  0  0  0  0  0
  140.5770  138.2460  154.1550 C   0  0  0  0  0  0  0  0  0  0  0  0
  141.9470  137.9690  154.0420 C   0  0  0  0  0  3  0  0  0  0  0  0
  138.4320  138.3710  153.0550 O   0  0  0  0  0  0  0  0  0  0  0  0
  137.8200  137.6640  153.0940 H   0  0  0  0  0  0  0  0  0  0  0  0
  140.2160  138.6240  155.4190 O   0  0  0  0  0  0  0  0  0  0  0  0
  140.4990  137.7360  156.4900 C   0  0  0  0  0  1  0  0  0  0  0  0
  2  3  2  0  0  0  0
  2  1  1  0  0  0  0
  4  2  1  0  0  0  0
  5  4  1  0  0  0  0
  6  7  2  0  0  0  0
  6 11  1  0  0  0  0
  7  8  1  0  0  0  0
  8  5  1  0  0  0  0
  8  9  2  0  0  0  0
 10  9  1  0  0  0  0
 11 14  1  0  0  0  0
 11 10  2  0  0  0  0
 13  6  1  0  0  0  0
 13 12  1  0  0  0  0
 15 14  1  0  0  0  0
 16  1  1  6  0  0  0
 16 17  1  0  0  0  0
 16 19  1  0  0  0  0
 18 17  1  0  0  0  0
 20 21  1  0  0  0  0
 20 19  1  0  0  0  0
 21 26  1  0  0  0  0
 22 23  1  0  0  0  0
 22 21  2  0  0  0  0
 23 24  2  0  0  0  0
 24 27  1  0  0  0  0
 24 25  1  0  0  0  0
 25 29  1  0  0  0  0
 26 25  2  0  0  0  0
 27 28  1  0  0  0  0
 29 30  1  0  0  0  0
M  END
>  <MODEL>
7

>  <REMARK>
 VINA RESULT:    -6.559      1.978      6.314
 INTER + INTRA:         -12.371
 INTER:                  -9.684
 INTRA:                  -2.688
 UNBOUND:                -1.402
  Name = CHEMBL564684
  15 active torsions:
  status: ('A' for Active; 'I' for Inactive)
    1  A    between atoms: C_1  and  O_2
    2  A    between atoms: O_2  and  C_3
    3  A    between atoms: C_5  and  C_6
    4  A    between atoms: C_6  and  C_7
    5  A    between atoms: C_7  and  C_8
    6  A    between atoms: C_8  and  C_10
    7  A    between atoms: C_10  and  C_11
    8  A    between atoms: C_11  and  O_12
    9  A    between atoms: C_11  and  C_13
   10  A    between atoms: C_13  and  C_14
   11  A    between atoms: C_14  and  C_15
   12  A    between atoms: C_18  and  O_19
   13  A    between atoms: C_20  and  O_21
   14  A    between atoms: O_21  and  C_22
   15  A    between atoms: C_26  and  O_27
                            x       y       z     vdW  Elec       q    Type
                         _______ _______ _______ _____ _____    ______ ____

>  <TORSDO>
F 13

>  <SCORE>
-6.559

>  <RMSD_LB>
1.978

>  <RMSD_UB>
6.314

$$$$
CHEMBL564684
 OpenBabel10172500283D

 30 31  0  0  1  0  0  0  0  0999 V2000
  143.2720  139.9260  151.5270 C   0  0  0  0  0  2  0  0  0  0  0  0
  143.6550  140.3150  150.1130 C   0  0  0  0  0  0  0  0  0  0  0  0
  142.8250  140.2280  149.2040 O   0  0  0  0  0  0  0  0  0  0  0  0
  145.0970  140.6940  149.8450 C   0  0  0  0  0  2  0  0  0  0  0  0
  145.4980  141.9040  150.6790 C   0  0  0  0  0  2  0  0  0  0  0  0
  147.9990  140.0130  152.8570 C   0  0  0  0  0  0  0  0  0  0  0  0
  147.2010  140.3890  151.7720 C   0  0  0  0  0  3  0  0  0  0  0  0
  146.3780  141.5260  151.8430 C   0  0  0  0  0  0  0  0  0  0  0  0
  146.3830  142.3050  153.0070 C   0  0  0  0  0  3  0  0  0  0  0  0
  147.1730  141.9390  154.0950 C   0  0  0  0  0  3  0  0  0  0  0  0
  147.9690  140.7960  154.0190 C   0  0  0  0  0  0  0  0  0  0  0  0
  148.2080  137.6370  152.8770 C   0  0  0  0  0  1  0  0  0  0  0  0
  148.8220  138.9170  152.8860 O   0  0  0  0  0  0  0  0  0  0  0  0
  148.7310  140.4290  155.0950 O   0  0  0  0  0  0  0  0  0  0  0  0
  148.5190  140.7460  155.9520 H   0  0  0  0  0  0  0  0  0  0  0  0
  143.9170  138.5980  151.9290 C   0  0  1  0  0  3  0  0  0  0  0  0
  144.5160  138.7090  153.2200 O   0  0  0  0  0  0  0  0  0  0  0  0
  145.3640  139.1730  153.1440 H   0  0  0  0  0  0  0  0  0  0  0  0
  142.9700  137.3920  151.9180 C   0  0  0  0  0  2  0  0  0  0  0  0
  142.9830  136.6550  150.5790 C   0  0  0  0  0  2  0  0  0  0  0  0
  141.6380  136.6630  149.9060 C   0  0  0  0  0  0  0  0  0  0  0  0
  141.3830  135.8200  148.8240 C   0  0  0  0  0  3  0  0  0  0  0  0
  140.1370  135.8440  148.1970 C   0  0  0  0  0  3  0  0  0  0  0  0
  139.1310  136.7050  148.6500 C   0  0  0  0  0  0  0  0  0  0  0  0
  139.3620  137.5520  149.7390 C   0  0  0  0  0  0  0  0  0  0  0  0
  140.6200  137.5170  150.3570 C   0  0  0  0  0  3  0  0  0  0  0  0
  137.9300  136.6910  147.9970 O   0  0  0  0  0  0  0  0  0  0  0  0
  137.4390  135.8950  147.9360 H   0  0  0  0  0  0  0  0  0  0  0  0
  138.5110  138.4510  150.3200 O   0  0  0  0  0  0  0  0  0  0  0  0
  138.3900  139.7370  149.7300 C   0  0  0  0  0  1  0  0  0  0  0  0
  2  1  1  0  0  0  0
  3  2  2  0  0  0  0
  4  2  1  0  0  0  0
  4  5  1  0  0  0  0
  5  8  1  0  0  0  0
  6 13  1  0  0  0  0
  6 11  1  0  0  0  0
  7  8  1  0  0  0  0
  7  6  2  0  0  0  0
  8  9  2  0  0  0  0
  9 10  1  0  0  0  0
 11 10  2  0  0  0  0
 11 14  1  0  0  0  0
 12 13  1  0  0  0  0
 14 15  1  0  0  0  0
 16  1  1  1  0  0  0
 16 17  1  0  0  0  0
 18 17  1  0  0  0  0
 19 16  1  0  0  0  0
 20 19  1  0  0  0  0
 21 26  1  0  0  0  0
 21 20  1  0  0  0  0
 22 21  2  0  0  0  0
 23 24  2  0  0  0  0
 23 22  1  0  0  0  0
 24 25  1  0  0  0  0
 25 29  1  0  0  0  0
 25 26  2  0  0  0  0
 27 24  1  0  0  0  0
 28 27  1  0  0  0  0
 30 29  1  0  0  0  0
M  END
>  <MODEL>
8

>  <REMARK>
 VINA RESULT:    -6.516      2.396      7.895
 INTER + INTRA:         -12.299
 INTER:                 -10.758
 INTRA:                  -1.541
 UNBOUND:                -1.402
  Name = CHEMBL564684
  15 active torsions:
  status: ('A' for Active; 'I' for Inactive)
    1  A    between atoms: C_1  and  O_2
    2  A    between atoms: O_2  and  C_3
    3  A    between atoms: C_5  and  C_6
    4  A    between atoms: C_6  and  C_7
    5  A    between atoms: C_7  and  C_8
    6  A    between atoms: C_8  and  C_10
    7  A    between atoms: C_10  and  C_11
    8  A    between atoms: C_11  and  O_12
    9  A    between atoms: C_11  and  C_13
   10  A    between atoms: C_13  and  C_14
   11  A    between atoms: C_14  and  C_15
   12  A    between atoms: C_18  and  O_19
   13  A    between atoms: C_20  and  O_21
   14  A    between atoms: O_21  and  C_22
   15  A    between atoms: C_26  and  O_27
                            x       y       z     vdW  Elec       q    Type
                         _______ _______ _______ _____ _____    ______ ____

>  <TORSDO>
F 13

>  <SCORE>
-6.516

>  <RMSD_LB>
2.396

>  <RMSD_UB>
7.895

$$$$
CHEMBL564684
 OpenBabel10172500283D

 30 31  0  0  1  0  0  0  0  0999 V2000
  143.0940  139.8790  151.5950 C   0  0  0  0  0  2  0  0  0  0  0  0
  143.5250  140.2670  150.1960 C   0  0  0  0  0  0  0  0  0  0  0  0
  142.7070  140.2490  149.2720 O   0  0  0  0  0  0  0  0  0  0  0  0
  144.9920  140.5590  149.9580 C   0  0  0  0  0  2  0  0  0  0  0  0
  145.4160  141.8210  150.6980 C   0  0  0  0  0  2  0  0  0  0  0  0
  148.0590  140.1190  152.8650 C   0  0  0  0  0  0  0  0  0  0  0  0
  147.2180  140.4230  151.7900 C   0  0  0  0  0  3  0  0  0  0  0  0
  146.3420  141.5210  151.8500 C   0  0  0  0  0  0  0  0  0  0  0  0
  146.3360  142.3330  152.9900 C   0  0  0  0  0  3  0  0  0  0  0  0
  147.1690  142.0390  154.0680 C   0  0  0  0  0  3  0  0  0  0  0  0
  148.0180  140.9350  154.0050 C   0  0  0  0  0  0  0  0  0  0  0  0
  148.3850  137.7580  152.9620 C   0  0  0  0  0  1  0  0  0  0  0  0
  148.9350  139.0660  152.9050 O   0  0  0  0  0  0  0  0  0  0  0  0
  148.8240  140.6370  155.0710 O   0  0  0  0  0  0  0  0  0  0  0  0
  148.6170  140.9690  155.9230 H   0  0  0  0  0  0  0  0  0  0  0  0
  143.9820  138.7680  152.1590 C   0  0  1  0  0  3  0  0  0  0  0  0
  144.5010  139.1470  153.4350 O   0  0  0  0  0  0  0  0  0  0  0  0
  145.2390  139.7640  153.3120 H   0  0  0  0  0  0  0  0  0  0  0  0
  143.3020  137.3990  152.2830 C   0  0  0  0  0  2  0  0  0  0  0  0
  142.5510  137.0060  151.0110 C   0  0  0  0  0  2  0  0  0  0  0  0
  143.4370  136.3140  150.0110 C   0  0  0  0  0  0  0  0  0  0  0  0
  142.8900  135.4570  149.0560 C   0  0  0  0  0  3  0  0  0  0  0  0
  143.7200  134.8090  148.1410 C   0  0  0  0  0  3  0  0  0  0  0  0
  145.1040  135.0180  148.1670 C   0  0  0  0  0  0  0  0  0  0  0  0
  145.6720  135.8790  149.1100 C   0  0  0  0  0  0  0  0  0  0  0  0
  144.8240  136.5220  150.0240 C   0  0  0  0  0  3  0  0  0  0  0  0
  145.8710  134.3540  147.2500 O   0  0  0  0  0  0  0  0  0  0  0  0
  145.7120  134.4700  146.3350 H   0  0  0  0  0  0  0  0  0  0  0  0
  146.9880  136.2070  149.2880 O   0  0  0  0  0  0  0  0  0  0  0  0
  147.8610  135.2150  149.8060 C   0  0  0  0  0  1  0  0  0  0  0  0
  2  1  1  0  0  0  0
  3  2  2  0  0  0  0
  4  2  1  0  0  0  0
  4  5  1  0  0  0  0
  5  8  1  0  0  0  0
  6 13  1  0  0  0  0
  6 11  1  0  0  0  0
  7  8  1  0  0  0  0
  7  6  2  0  0  0  0
  8  9  2  0  0  0  0
  9 10  1  0  0  0  0
 11 10  2  0  0  0  0
 11 14  1  0  0  0  0
 13 12  1  0  0  0  0
 14 15  1  0  0  0  0
 16  1  1  1  0  0  0
 16 19  1  0  0  0  0
 16 17  1  0  0  0  0
 18 17  1  0  0  0  0
 20 19  1  0  0  0  0
 21 26  1  0  0  0  0
 21 20  1  0  0  0  0
 22 21  2  0  0  0  0
 23 24  2  0  0  0  0
 23 22  1  0  0  0  0
 24 25  1  0  0  0  0
 25 29  1  0  0  0  0
 25 26  2  0  0  0  0
 27 24  1  0  0  0  0
 28 27  1  0  0  0  0
 29 30  1  0  0  0  0
M  END
>  <MODEL>
9

>  <REMARK>
 VINA RESULT:    -6.489      2.755      7.060
 INTER + INTRA:         -12.254
 INTER:                 -10.852
 INTRA:                  -1.402
 UNBOUND:                -1.402
  Name = CHEMBL564684
  15 active torsions:
  status: ('A' for Active; 'I' for Inactive)
    1  A    between atoms: C_1  and  O_2
    2  A    between atoms: O_2  and  C_3
    3  A    between atoms: C_5  and  C_6
    4  A    between atoms: C_6  and  C_7
    5  A    between atoms: C_7  and  C_8
    6  A    between atoms: C_8  and  C_10
    7  A    between atoms: C_10  and  C_11
    8  A    between atoms: C_11  and  O_12
    9  A    between atoms: C_11  and  C_13
   10  A    between atoms: C_13  and  C_14
   11  A    between atoms: C_14  and  C_15
   12  A    between atoms: C_18  and  O_19
   13  A    between atoms: C_20  and  O_21
   14  A    between atoms: O_21  and  C_22
   15  A    between atoms: C_26  and  O_27
                            x       y       z     vdW  Elec       q    Type
                         _______ _______ _______ _____ _____    ______ ____

>  <TORSDO>
F 13

>  <SCORE>
-6.489

>  <RMSD_LB>
2.755

>  <RMSD_UB>
7.060

$$$$
