CHEMBL3629600
 OpenBabel10162523573D

 22 23  0  0  1  0  0  0  0  0999 V2000
  145.1360  138.6550  153.0310 C   0  0  0  0  0  2  0  0  0  0  0  0
  143.3630  139.9440  149.8980 C   0  0  0  0  0  0  0  0  0  0  0  0
  143.6190  139.5810  151.2230 C   0  0  0  0  0  3  0  0  0  0  0  0
  144.8720  139.0730  151.6030 C   0  0  0  0  0  0  0  0  0  0  0  0
  145.8890  138.9710  150.6430 C   0  0  0  0  0  3  0  0  0  0  0  0
  145.6520  139.3460  149.3220 C   0  0  0  0  0  3  0  0  0  0  0  0
  144.3940  139.8210  148.9550 C   0  0  0  0  0  0  0  0  0  0  0  0
  141.0160  139.6070  149.6740 C   0  0  0  0  0  1  0  0  0  0  0  0
  142.1610  140.4110  149.4340 O   0  0  0  0  0  0  0  0  0  0  0  0
  144.1580  140.1760  147.6530 O   0  0  0  0  0  0  0  0  0  0  0  0
  144.1910  141.0770  147.3990 H   0  0  0  0  0  0  0  0  0  0  0  0
  145.3020  139.8230  154.0320 C   0  0  1  0  0  3  0  0  0  0  0  0
  144.4050  139.6400  155.2680 C   0  0  0  0  0  1  0  0  0  0  0  0
  146.7900  140.0550  154.4550 C   0  0  1  0  0  3  0  0  0  0  0  0
  147.7540  139.0150  153.8620 C   0  0  0  0  0  1  0  0  0  0  0  0
  147.3120  141.4740  154.1180 C   0  0  0  0  0  2  0  0  0  0  0  0
  147.0750  141.9140  152.6930 C   0  0  0  0  0  0  0  0  0  0  0  0
  145.8140  142.3800  152.2930 C   0  0  0  0  0  3  0  0  0  0  0  0
  145.5930  142.8000  150.9820 C   0  0  0  0  0  3  0  0  0  0  0  0
  146.6370  142.7670  150.0550 C   0  0  0  0  0  3  0  0  0  0  0  0
  147.8960  142.3130  150.4410 C   0  0  0  0  0  3  0  0  0  0  0  0
  148.1140  141.8870  151.7540 C   0  0  0  0  0  3  0  0  0  0  0  0
  1 12  1  0  0  0  0
  2  3  1  0  0  0  0
  3  4  2  0  0  0  0
  4  1  1  0  0  0  0
  5  4  1  0  0  0  0
  6  5  2  0  0  0  0
  7  6  1  0  0  0  0
  7  2  2  0  0  0  0
  9  8  1  0  0  0  0
  9  2  1  0  0  0  0
 10  7  1  0  0  0  0
 11 10  1  0  0  0  0
 12 14  1  0  0  0  0
 12 13  1  1  0  0  0
 14 15  1  6  0  0  0
 16 14  1  0  0  0  0
 17 16  1  0  0  0  0
 18 17  1  0  0  0  0
 19 18  2  0  0  0  0
 20 21  2  0  0  0  0
 20 19  1  0  0  0  0
 21 22  1  0  0  0  0
 22 17  2  0  0  0  0
M  END
>  <MODEL>
1

>  <REMARK>
 VINA RESULT:    -6.630      0.000      0.000
 INTER + INTRA:         -11.649
 INTER:                  -9.292
 INTRA:                  -2.357
 UNBOUND:                -2.499
  Name = CHEMBL3629600
  10 active torsions:
  status: ('A' for Active; 'I' for Inactive)
    1  A    between atoms: C_1  and  O_2
    2  A    between atoms: O_2  and  C_3
    3  A    between atoms: C_5  and  C_6
    4  A    between atoms: C_6  and  C_7
    5  A    between atoms: C_7  and  C_8
    6  A    between atoms: C_7  and  C_9
    7  A    between atoms: C_9  and  C_10
    8  A    between atoms: C_9  and  C_11
    9  A    between atoms: C_11  and  C_12
   10  A    between atoms: C_20  and  O_21
                            x       y       z     vdW  Elec       q    Type
                         _______ _______ _______ _____ _____    ______ ____

>  <TORSDO>
F 7

>  <SCORE>
-6.630

>  <RMSD_LB>
0.000

>  <RMSD_UB>
0.000

$$$$
CHEMBL3629600
 OpenBabel10162523573D

 22 23  0  0  1  0  0  0  0  0999 V2000
  146.3730  138.3580  152.1200 C   0  0  0  0  0  2  0  0  0  0  0  0
  146.2380  139.5000  148.4740 C   0  0  0  0  0  0  0  0  0  0  0  0
  146.7000  138.9720  149.6820 C   0  0  0  0  0  3  0  0  0  0  0  0
  145.8610  138.9030  150.8070 C   0  0  0  0  0  0  0  0  0  0  0  0
  144.5320  139.3330  150.6970 C   0  0  0  0  0  3  0  0  0  0  0  0
  144.0540  139.8460  149.4920 C   0  0  0  0  0  3  0  0  0  0  0  0
  144.9060  139.9330  148.3940 C   0  0  0  0  0  0  0  0  0  0  0  0
  147.5100  138.4520  146.7540 C   0  0  0  0  0  1  0  0  0  0  0  0
  146.9960  139.6390  147.3410 O   0  0  0  0  0  0  0  0  0  0  0  0
  144.4400  140.4510  147.2140 O   0  0  0  0  0  0  0  0  0  0  0  0
  143.5650  140.2650  146.9340 H   0  0  0  0  0  0  0  0  0  0  0  0
  146.0520  139.2310  153.3570 C   0  0  1  0  0  3  0  0  0  0  0  0
  145.1770  138.4740  154.3700 C   0  0  0  0  0  1  0  0  0  0  0  0
  147.3340  139.8010  154.0480 C   0  0  1  0  0  3  0  0  0  0  0  0
  148.6310  139.1490  153.5440 C   0  0  0  0  0  1  0  0  0  0  0  0
  147.4650  141.3410  153.9270 C   0  0  0  0  0  2  0  0  0  0  0  0
  147.1880  141.8930  152.5490 C   0  0  0  0  0  0  0  0  0  0  0  0
  148.2050  141.9400  151.5830 C   0  0  0  0  0  3  0  0  0  0  0  0
  147.9500  142.4360  150.3050 C   0  0  0  0  0  3  0  0  0  0  0  0
  146.6700  142.8830  149.9740 C   0  0  0  0  0  3  0  0  0  0  0  0
  145.6490  142.8350  150.9210 C   0  0  0  0  0  3  0  0  0  0  0  0
  145.9070  142.3430  152.2030 C   0  0  0  0  0  3  0  0  0  0  0  0
  1 12  1  0  0  0  0
  2  3  1  0  0  0  0
  3  4  2  0  0  0  0
  4  1  1  0  0  0  0
  5  4  1  0  0  0  0
  6  5  2  0  0  0  0
  7  2  2  0  0  0  0
  7  6  1  0  0  0  0
  8  9  1  0  0  0  0
  9  2  1  0  0  0  0
 10  7  1  0  0  0  0
 11 10  1  0  0  0  0
 12 14  1  0  0  0  0
 12 13  1  1  0  0  0
 14 15  1  6  0  0  0
 16 14  1  0  0  0  0
 17 16  1  0  0  0  0
 18 17  2  0  0  0  0
 19 18  1  0  0  0  0
 20 19  2  0  0  0  0
 20 21  1  0  0  0  0
 21 22  2  0  0  0  0
 22 17  1  0  0  0  0
M  END
>  <MODEL>
2

>  <REMARK>
 VINA RESULT:    -6.609      1.221      2.601
 INTER + INTRA:         -11.619
 INTER:                  -9.067
 INTRA:                  -2.553
 UNBOUND:                -2.499
  Name = CHEMBL3629600
  10 active torsions:
  status: ('A' for Active; 'I' for Inactive)
    1  A    between atoms: C_1  and  O_2
    2  A    between atoms: O_2  and  C_3
    3  A    between atoms: C_5  and  C_6
    4  A    between atoms: C_6  and  C_7
    5  A    between atoms: C_7  and  C_8
    6  A    between atoms: C_7  and  C_9
    7  A    between atoms: C_9  and  C_10
    8  A    between atoms: C_9  and  C_11
    9  A    between atoms: C_11  and  C_12
   10  A    between atoms: C_20  and  O_21
                            x       y       z     vdW  Elec       q    Type
                         _______ _______ _______ _____ _____    ______ ____

>  <TORSDO>
F 7

>  <SCORE>
-6.609

>  <RMSD_LB>
1.221

>  <RMSD_UB>
2.601

$$$$
CHEMBL3629600
 OpenBabel10162523573D

 22 23  0  0  1  0  0  0  0  0999 V2000
  147.1370  137.2910  152.4450 C   0  0  0  0  0  2  0  0  0  0  0  0
  143.9310  139.3080  151.9250 C   0  0  0  0  0  0  0  0  0  0  0  0
  145.2310  138.8190  151.7680 C   0  0  0  0  0  3  0  0  0  0  0  0
  145.7220  137.7970  152.5980 C   0  0  0  0  0  0  0  0  0  0  0  0
  144.8770  137.2350  153.5650 C   0  0  0  0  0  3  0  0  0  0  0  0
  143.5730  137.7020  153.7190 C   0  0  0  0  0  3  0  0  0  0  0  0
  143.1100  138.7350  152.9080 C   0  0  0  0  0  0  0  0  0  0  0  0
  143.1150  140.0600  149.8180 C   0  0  0  0  0  1  0  0  0  0  0  0
  143.3840  140.3250  151.1870 O   0  0  0  0  0  0  0  0  0  0  0  0
  141.8330  139.2030  153.0700 O   0  0  0  0  0  0  0  0  0  0  0  0
  141.1110  138.6050  153.0730 H   0  0  0  0  0  0  0  0  0  0  0  0
  148.0120  137.4060  153.7170 C   0  0  1  0  0  3  0  0  0  0  0  0
  149.5090  137.4590  153.3700 C   0  0  0  0  0  1  0  0  0  0  0  0
  147.6080  138.6130  154.6250 C   0  0  1  0  0  3  0  0  0  0  0  0
  147.7030  138.2970  156.1260 C   0  0  0  0  0  1  0  0  0  0  0  0
  148.4170  139.9020  154.3310 C   0  0  0  0  0  2  0  0  0  0  0  0
  147.8000  140.8130  153.2950 C   0  0  0  0  0  0  0  0  0  0  0  0
  146.6180  141.5130  153.5780 C   0  0  0  0  0  3  0  0  0  0  0  0
  146.0520  142.3660  152.6310 C   0  0  0  0  0  3  0  0  0  0  0  0
  146.6690  142.5340  151.3890 C   0  0  0  0  0  3  0  0  0  0  0  0
  147.8470  141.8500  151.0980 C   0  0  0  0  0  3  0  0  0  0  0  0
  148.4090  140.9920  152.0470 C   0  0  0  0  0  3  0  0  0  0  0  0
  1  4  1  0  0  0  0
  1 12  1  0  0  0  0
  2  7  1  0  0  0  0
  3  2  2  0  0  0  0
  3  4  1  0  0  0  0
  4  5  2  0  0  0  0
  5  6  1  0  0  0  0
  7 10  1  0  0  0  0
  7  6  2  0  0  0  0
  8  9  1  0  0  0  0
  9  2  1  0  0  0  0
 10 11  1  0  0  0  0
 12 13  1  6  0  0  0
 12 14  1  0  0  0  0
 14 15  1  1  0  0  0
 16 14  1  0  0  0  0
 17 18  1  0  0  0  0
 17 16  1  0  0  0  0
 19 18  2  0  0  0  0
 20 19  1  0  0  0  0
 21 20  2  0  0  0  0
 21 22  1  0  0  0  0
 22 17  2  0  0  0  0
M  END
>  <MODEL>
3

>  <REMARK>
 VINA RESULT:    -6.476      1.668      3.022
 INTER + INTRA:         -11.436
 INTER:                  -9.425
 INTRA:                  -2.012
 UNBOUND:                -2.499
  Name = CHEMBL3629600
  10 active torsions:
  status: ('A' for Active; 'I' for Inactive)
    1  A    between atoms: C_1  and  O_2
    2  A    between atoms: O_2  and  C_3
    3  A    between atoms: C_5  and  C_6
    4  A    between atoms: C_6  and  C_7
    5  A    between atoms: C_7  and  C_8
    6  A    between atoms: C_7  and  C_9
    7  A    between atoms: C_9  and  C_10
    8  A    between atoms: C_9  and  C_11
    9  A    between atoms: C_11  and  C_12
   10  A    between atoms: C_20  and  O_21
                            x       y       z     vdW  Elec       q    Type
                         _______ _______ _______ _____ _____    ______ ____

>  <TORSDO>
F 7

>  <SCORE>
-6.476

>  <RMSD_LB>
1.668

>  <RMSD_UB>
3.022

$$$$
CHEMBL3629600
 OpenBabel10162523573D

 22 23  0  0  1  0  0  0  0  0999 V2000
  143.9640  140.4180  150.0380 C   0  0  0  0  0  2  0  0  0  0  0  0
  141.9320  138.6660  152.7620 C   0  0  0  0  0  0  0  0  0  0  0  0
  142.2680  139.3530  151.5920 C   0  0  0  0  0  3  0  0  0  0  0  0
  143.6070  139.6500  151.2890 C   0  0  0  0  0  0  0  0  0  0  0  0
  144.6190  139.2110  152.1550 C   0  0  0  0  0  3  0  0  0  0  0  0
  144.2980  138.5100  153.3160 C   0  0  0  0  0  3  0  0  0  0  0  0
  142.9630  138.2490  153.6170 C   0  0  0  0  0  0  0  0  0  0  0  0
  139.7680  137.8750  152.1590 C   0  0  0  0  0  1  0  0  0  0  0  0
  140.6530  138.3690  153.1540 O   0  0  0  0  0  0  0  0  0  0  0  0
  142.6480  137.5720  154.7660 O   0  0  0  0  0  0  0  0  0  0  0  0
  141.8720  137.0480  154.8040 H   0  0  0  0  0  0  0  0  0  0  0  0
  145.2790  139.9740  149.3520 C   0  0  1  0  0  3  0  0  0  0  0  0
  145.0170  139.3910  147.9530 C   0  0  0  0  0  1  0  0  0  0  0  0
  146.3470  141.1140  149.2890 C   0  0  1  0  0  3  0  0  0  0  0  0
  146.4840  141.7340  147.8890 C   0  0  0  0  0  1  0  0  0  0  0  0
  146.1010  142.2460  150.3180 C   0  0  0  0  0  2  0  0  0  0  0  0
  146.8610  142.0960  151.6150 C   0  0  0  0  0  0  0  0  0  0  0  0
  148.2430  141.8580  151.6070 C   0  0  0  0  0  3  0  0  0  0  0  0
  148.9510  141.7330  152.8010 C   0  0  0  0  0  3  0  0  0  0  0  0
  148.2850  141.8540  154.0220 C   0  0  0  0  0  3  0  0  0  0  0  0
  146.9140  142.0990  154.0450 C   0  0  0  0  0  3  0  0  0  0  0  0
  146.2040  142.2180  152.8470 C   0  0  0  0  0  3  0  0  0  0  0  0
  1  4  1  0  0  0  0
  2  9  1  0  0  0  0
  2  7  1  0  0  0  0
  3  2  2  0  0  0  0
  4  3  1  0  0  0  0
  4  5  2  0  0  0  0
  5  6  1  0  0  0  0
  6  7  2  0  0  0  0
  7 10  1  0  0  0  0
  8  9  1  0  0  0  0
 10 11  1  0  0  0  0
 12 13  1  6  0  0  0
 12  1  1  0  0  0  0
 14 15  1  6  0  0  0
 14 12  1  0  0  0  0
 14 16  1  0  0  0  0
 16 17  1  0  0  0  0
 17 22  1  0  0  0  0
 18 17  2  0  0  0  0
 18 19  1  0  0  0  0
 19 20  2  0  0  0  0
 20 21  1  0  0  0  0
 22 21  2  0  0  0  0
M  END
>  <MODEL>
4

>  <REMARK>
 VINA RESULT:    -6.163      2.226      4.340
 INTER + INTRA:         -11.004
 INTER:                  -9.419
 INTRA:                  -1.585
 UNBOUND:                -2.499
  Name = CHEMBL3629600
  10 active torsions:
  status: ('A' for Active; 'I' for Inactive)
    1  A    between atoms: C_1  and  O_2
    2  A    between atoms: O_2  and  C_3
    3  A    between atoms: C_5  and  C_6
    4  A    between atoms: C_6  and  C_7
    5  A    between atoms: C_7  and  C_8
    6  A    between atoms: C_7  and  C_9
    7  A    between atoms: C_9  and  C_10
    8  A    between atoms: C_9  and  C_11
    9  A    between atoms: C_11  and  C_12
   10  A    between atoms: C_20  and  O_21
                            x       y       z     vdW  Elec       q    Type
                         _______ _______ _______ _____ _____    ______ ____

>  <TORSDO>
F 7

>  <SCORE>
-6.163

>  <RMSD_LB>
2.226

>  <RMSD_UB>
4.340

$$$$
CHEMBL3629600
 OpenBabel10162523573D

 22 23  0  0  1  0  0  0  0  0999 V2000
  142.9380  137.4960  151.9500 C   0  0  0  0  0  2  0  0  0  0  0  0
  140.2960  138.4020  154.5610 C   0  0  0  0  0  0  0  0  0  0  0  0
  141.5070  138.0240  153.9750 C   0  0  0  0  0  3  0  0  0  0  0  0
  141.6360  137.9340  152.5790 C   0  0  0  0  0  0  0  0  0  0  0  0
  140.5440  138.2710  151.7680 C   0  0  0  0  0  3  0  0  0  0  0  0
  139.3360  138.6670  152.3390 C   0  0  0  0  0  3  0  0  0  0  0  0
  139.2160  138.7230  153.7260 C   0  0  0  0  0  0  0  0  0  0  0  0
  140.3670  137.3260  156.6850 C   0  0  0  0  0  1  0  0  0  0  0  0
  140.0720  138.4800  155.9110 O   0  0  0  0  0  0  0  0  0  0  0  0
  138.0240  139.0990  154.2870 O   0  0  0  0  0  0  0  0  0  0  0  0
  137.2170  138.7970  153.9190 H   0  0  0  0  0  0  0  0  0  0  0  0
  144.1710  138.3440  152.3470 C   0  0  1  0  0  3  0  0  0  0  0  0
  145.3170  137.4630  152.8730 C   0  0  0  0  0  1  0  0  0  0  0  0
  144.6700  139.2700  151.1900 C   0  0  1  0  0  3  0  0  0  0  0  0
  143.8150  139.1580  149.9170 C   0  0  0  0  0  1  0  0  0  0  0  0
  144.7730  140.7620  151.5960 C   0  0  0  0  0  2  0  0  0  0  0  0
  146.1040  141.1660  152.1840 C   0  0  0  0  0  0  0  0  0  0  0  0
  147.2560  141.1920  151.3850 C   0  0  0  0  0  3  0  0  0  0  0  0
  148.4850  141.5780  151.9200 C   0  0  0  0  0  3  0  0  0  0  0  0
  148.5730  141.9520  153.2630 C   0  0  0  0  0  3  0  0  0  0  0  0
  147.4350  141.9380  154.0650 C   0  0  0  0  0  3  0  0  0  0  0  0
  146.2060  141.5460  153.5300 C   0  0  0  0  0  3  0  0  0  0  0  0
  1 12  1  0  0  0  0
  1  4  1  0  0  0  0
  2  9  1  0  0  0  0
  3  2  1  0  0  0  0
  4  3  2  0  0  0  0
  5  6  2  0  0  0  0
  5  4  1  0  0  0  0
  6  7  1  0  0  0  0
  7 10  1  0  0  0  0
  7  2  2  0  0  0  0
  9  8  1  0  0  0  0
 11 10  1  0  0  0  0
 12 13  1  6  0  0  0
 14 15  1  6  0  0  0
 14 16  1  0  0  0  0
 14 12  1  0  0  0  0
 16 17  1  0  0  0  0
 17 22  1  0  0  0  0
 18 19  1  0  0  0  0
 18 17  2  0  0  0  0
 19 20  2  0  0  0  0
 20 21  1  0  0  0  0
 22 21  2  0  0  0  0
M  END
>  <MODEL>
5

>  <REMARK>
 VINA RESULT:    -5.941      3.189      4.957
 INTER + INTRA:         -10.698
 INTER:                  -9.513
 INTRA:                  -1.184
 UNBOUND:                -2.499
  Name = CHEMBL3629600
  10 active torsions:
  status: ('A' for Active; 'I' for Inactive)
    1  A    between atoms: C_1  and  O_2
    2  A    between atoms: O_2  and  C_3
    3  A    between atoms: C_5  and  C_6
    4  A    between atoms: C_6  and  C_7
    5  A    between atoms: C_7  and  C_8
    6  A    between atoms: C_7  and  C_9
    7  A    between atoms: C_9  and  C_10
    8  A    between atoms: C_9  and  C_11
    9  A    between atoms: C_11  and  C_12
   10  A    between atoms: C_20  and  O_21
                            x       y       z     vdW  Elec       q    Type
                         _______ _______ _______ _____ _____    ______ ____

>  <TORSDO>
F 7

>  <SCORE>
-5.941

>  <RMSD_LB>
3.189

>  <RMSD_UB>
4.957

$$$$
CHEMBL3629600
 OpenBabel10162523573D

 22 23  0  0  1  0  0  0  0  0999 V2000
  137.3910  135.8930  150.1930 C   0  0  0  0  0  2  0  0  0  0  0  0
  135.3260  135.8480  153.4100 C   0  0  0  0  0  0  0  0  0  0  0  0
  136.2380  136.2340  152.4240 C   0  0  0  0  0  3  0  0  0  0  0  0
  136.3830  135.4880  151.2430 C   0  0  0  0  0  0  0  0  0  0  0  0
  135.5690  134.3660  151.0380 C   0  0  0  0  0  3  0  0  0  0  0  0
  134.6430  133.9800  152.0050 C   0  0  0  0  0  3  0  0  0  0  0  0
  134.5310  134.7140  153.1840 C   0  0  0  0  0  0  0  0  0  0  0  0
  136.1890  136.3860  155.5640 C   0  0  0  0  0  1  0  0  0  0  0  0
  135.1460  136.4940  154.6050 O   0  0  0  0  0  0  0  0  0  0  0  0
  133.6310  134.3250  154.1410 O   0  0  0  0  0  0  0  0  0  0  0  0
  132.7640  134.6820  154.1420 H   0  0  0  0  0  0  0  0  0  0  0  0
  136.7850  136.2760  148.8210 C   0  0  1  0  0  3  0  0  0  0  0  0
  136.9040  137.7860  148.5530 C   0  0  0  0  0  1  0  0  0  0  0  0
  137.3900  135.4520  147.6370 C   0  0  1  0  0  3  0  0  0  0  0  0
  138.3070  134.3100  148.1040 C   0  0  0  0  0  1  0  0  0  0  0  0
  136.3200  134.8770  146.6760 C   0  0  0  0  0  2  0  0  0  0  0  0
  135.0740  134.3570  147.3550 C   0  0  0  0  0  0  0  0  0  0  0  0
  135.0080  133.0290  147.8000 C   0  0  0  0  0  3  0  0  0  0  0  0
  133.8660  132.5480  148.4400 C   0  0  0  0  0  3  0  0  0  0  0  0
  132.7770  133.3970  148.6510 C   0  0  0  0  0  3  0  0  0  0  0  0
  132.8330  134.7200  148.2210 C   0  0  0  0  0  3  0  0  0  0  0  0
  133.9750  135.1990  147.5750 C   0  0  0  0  0  3  0  0  0  0  0  0
  1  4  1  0  0  0  0
  2  9  1  0  0  0  0
  3  2  2  0  0  0  0
  4  3  1  0  0  0  0
  5  4  2  0  0  0  0
  5  6  1  0  0  0  0
  6  7  2  0  0  0  0
  7  2  1  0  0  0  0
  7 10  1  0  0  0  0
  9  8  1  0  0  0  0
 10 11  1  0  0  0  0
 12 13  1  6  0  0  0
 12  1  1  0  0  0  0
 14 15  1  1  0  0  0
 14 12  1  0  0  0  0
 16 17  1  0  0  0  0
 16 14  1  0  0  0  0
 17 22  2  0  0  0  0
 17 18  1  0  0  0  0
 18 19  2  0  0  0  0
 19 20  1  0  0  0  0
 21 20  2  0  0  0  0
 22 21  1  0  0  0  0
M  END
>  <MODEL>
6

>  <REMARK>
 VINA RESULT:    -5.935      9.929     12.665
 INTER + INTRA:         -10.690
 INTER:                  -8.771
 INTRA:                  -1.919
 UNBOUND:                -2.499
  Name = CHEMBL3629600
  10 active torsions:
  status: ('A' for Active; 'I' for Inactive)
    1  A    between atoms: C_1  and  O_2
    2  A    between atoms: O_2  and  C_3
    3  A    between atoms: C_5  and  C_6
    4  A    between atoms: C_6  and  C_7
    5  A    between atoms: C_7  and  C_8
    6  A    between atoms: C_7  and  C_9
    7  A    between atoms: C_9  and  C_10
    8  A    between atoms: C_9  and  C_11
    9  A    between atoms: C_11  and  C_12
   10  A    between atoms: C_20  and  O_21
                            x       y       z     vdW  Elec       q    Type
                         _______ _______ _______ _____ _____    ______ ____

>  <TORSDO>
F 7

>  <SCORE>
-5.935

>  <RMSD_LB>
9.929

>  <RMSD_UB>
12.665

$$$$
CHEMBL3629600
 OpenBabel10162523573D

 22 23  0  0  1  0  0  0  0  0999 V2000
  146.8110  137.6830  151.0310 C   0  0  0  0  0  2  0  0  0  0  0  0
  148.1730  139.4120  154.1570 C   0  0  0  0  0  0  0  0  0  0  0  0
  147.8420  139.1470  152.8260 C   0  0  0  0  0  3  0  0  0  0  0  0
  147.1420  137.9800  152.4750 C   0  0  0  0  0  0  0  0  0  0  0  0
  146.7380  137.0950  153.4840 C   0  0  0  0  0  3  0  0  0  0  0  0
  147.0470  137.3570  154.8170 C   0  0  0  0  0  3  0  0  0  0  0  0
  147.7660  138.5040  155.1460 C   0  0  0  0  0  0  0  0  0  0  0  0
  148.8820  141.6480  153.7420 C   0  0  0  0  0  1  0  0  0  0  0  0
  148.8840  140.5030  154.5840 O   0  0  0  0  0  0  0  0  0  0  0  0
  148.0820  138.7520  156.4560 O   0  0  0  0  0  0  0  0  0  0  0  0
  148.2820  138.0420  157.0330 H   0  0  0  0  0  0  0  0  0  0  0  0
  145.8290  138.6800  150.3690 C   0  0  1  0  0  3  0  0  0  0  0  0
  146.5120  139.4860  149.2500 C   0  0  0  0  0  1  0  0  0  0  0  0
  144.5270  137.9930  149.8430 C   0  0  1  0  0  3  0  0  0  0  0  0
  144.6650  137.4560  148.4100 C   0  0  0  0  0  1  0  0  0  0  0  0
  144.0200  136.8520  150.7610 C   0  0  0  0  0  2  0  0  0  0  0  0
  142.9350  137.2560  151.7310 C   0  0  0  0  0  0  0  0  0  0  0  0
  143.2570  137.6180  153.0470 C   0  0  0  0  0  3  0  0  0  0  0  0
  142.2610  138.0050  153.9430 C   0  0  0  0  0  3  0  0  0  0  0  0
  140.9280  138.0420  153.5290 C   0  0  0  0  0  3  0  0  0  0  0  0
  140.5950  137.6930  152.2220 C   0  0  0  0  0  3  0  0  0  0  0  0
  141.5940  137.3000  151.3270 C   0  0  0  0  0  3  0  0  0  0  0  0
  1  4  1  0  0  0  0
  2  9  1  0  0  0  0
  2  7  1  0  0  0  0
  3  2  2  0  0  0  0
  4  3  1  0  0  0  0
  4  5  2  0  0  0  0
  5  6  1  0  0  0  0
  6  7  2  0  0  0  0
  7 10  1  0  0  0  0
  8  9  1  0  0  0  0
 10 11  1  0  0  0  0
 12 13  1  6  0  0  0
 12  1  1  0  0  0  0
 14 15  1  6  0  0  0
 14 12  1  0  0  0  0
 14 16  1  0  0  0  0
 16 17  1  0  0  0  0
 17 18  1  0  0  0  0
 18 19  2  0  0  0  0
 20 19  1  0  0  0  0
 21 20  2  0  0  0  0
 22 17  2  0  0  0  0
 22 21  1  0  0  0  0
M  END
>  <MODEL>
7

>  <REMARK>
 VINA RESULT:    -5.850      3.483      6.614
 INTER + INTRA:         -10.572
 INTER:                  -9.121
 INTRA:                  -1.451
 UNBOUND:                -2.499
  Name = CHEMBL3629600
  10 active torsions:
  status: ('A' for Active; 'I' for Inactive)
    1  A    between atoms: C_1  and  O_2
    2  A    between atoms: O_2  and  C_3
    3  A    between atoms: C_5  and  C_6
    4  A    between atoms: C_6  and  C_7
    5  A    between atoms: C_7  and  C_8
    6  A    between atoms: C_7  and  C_9
    7  A    between atoms: C_9  and  C_10
    8  A    between atoms: C_9  and  C_11
    9  A    between atoms: C_11  and  C_12
   10  A    between atoms: C_20  and  O_21
                            x       y       z     vdW  Elec       q    Type
                         _______ _______ _______ _____ _____    ______ ____

>  <TORSDO>
F 7

>  <SCORE>
-5.850

>  <RMSD_LB>
3.483

>  <RMSD_UB>
6.614

$$$$
CHEMBL3629600
 OpenBabel10162523573D

 22 23  0  0  1  0  0  0  0  0999 V2000
  148.1530  139.7350  152.0600 C   0  0  0  0  0  2  0  0  0  0  0  0
  145.0830  139.1200  149.8660 C   0  0  0  0  0  0  0  0  0  0  0  0
  146.2930  138.9280  150.5380 C   0  0  0  0  0  3  0  0  0  0  0  0
  146.8300  139.9350  151.3590 C   0  0  0  0  0  0  0  0  0  0  0  0
  146.1150  141.1280  151.5350 C   0  0  0  0  0  3  0  0  0  0  0  0
  144.8990  141.3240  150.8840 C   0  0  0  0  0  3  0  0  0  0  0  0
  144.3940  140.3280  150.0510 C   0  0  0  0  0  0  0  0  0  0  0  0
  143.9510  137.0410  149.6050 C   0  0  0  0  0  1  0  0  0  0  0  0
  144.5070  138.2100  149.0190 O   0  0  0  0  0  0  0  0  0  0  0  0
  143.2050  140.5280  149.4010 O   0  0  0  0  0  0  0  0  0  0  0  0
  142.5660  139.8430  149.3710 H   0  0  0  0  0  0  0  0  0  0  0  0
  148.1510  138.6440  153.1590 C   0  0  1  0  0  3  0  0  0  0  0  0
  149.3030  137.6440  152.9630 C   0  0  0  0  0  1  0  0  0  0  0  0
  148.1690  139.2380  154.6050 C   0  0  1  0  0  3  0  0  0  0  0  0
  148.2910  140.7700  154.6270 C   0  0  0  0  0  1  0  0  0  0  0  0
  146.9450  138.8190  155.4580 C   0  0  0  0  0  2  0  0  0  0  0  0
  145.6900  138.5370  154.6670 C   0  0  0  0  0  0  0  0  0  0  0  0
  144.7280  139.5400  154.4770 C   0  0  0  0  0  3  0  0  0  0  0  0
  143.5740  139.2880  153.7360 C   0  0  0  0  0  3  0  0  0  0  0  0
  143.3720  138.0290  153.1680 C   0  0  0  0  0  3  0  0  0  0  0  0
  144.3230  137.0260  153.3430 C   0  0  0  0  0  3  0  0  0  0  0  0
  145.4760  137.2780  154.0900 C   0  0  0  0  0  3  0  0  0  0  0  0
  1 12  1  0  0  0  0
  2  7  2  0  0  0  0
  2  3  1  0  0  0  0
  3  4  2  0  0  0  0
  4  5  1  0  0  0  0
  4  1  1  0  0  0  0
  6  5  2  0  0  0  0
  7  6  1  0  0  0  0
  9  8  1  0  0  0  0
  9  2  1  0  0  0  0
 10  7  1  0  0  0  0
 11 10  1  0  0  0  0
 12 13  1  6  0  0  0
 12 14  1  0  0  0  0
 14 15  1  6  0  0  0
 14 16  1  0  0  0  0
 17 16  1  0  0  0  0
 18 17  1  0  0  0  0
 19 18  2  0  0  0  0
 20 21  2  0  0  0  0
 20 19  1  0  0  0  0
 21 22  1  0  0  0  0
 22 17  2  0  0  0  0
M  END
>  <MODEL>
8

>  <REMARK>
 VINA RESULT:    -5.670      1.678      3.849
 INTER + INTRA:         -10.324
 INTER:                  -7.795
 INTRA:                  -2.530
 UNBOUND:                -2.499
  Name = CHEMBL3629600
  10 active torsions:
  status: ('A' for Active; 'I' for Inactive)
    1  A    between atoms: C_1  and  O_2
    2  A    between atoms: O_2  and  C_3
    3  A    between atoms: C_5  and  C_6
    4  A    between atoms: C_6  and  C_7
    5  A    between atoms: C_7  and  C_8
    6  A    between atoms: C_7  and  C_9
    7  A    between atoms: C_9  and  C_10
    8  A    between atoms: C_9  and  C_11
    9  A    between atoms: C_11  and  C_12
   10  A    between atoms: C_20  and  O_21
                            x       y       z     vdW  Elec       q    Type
                         _______ _______ _______ _____ _____    ______ ____

>  <TORSDO>
F 7

>  <SCORE>
-5.670

>  <RMSD_LB>
1.678

>  <RMSD_UB>
3.849

$$$$
CHEMBL3629600
 OpenBabel10162523573D

 22 23  0  0  1  0  0  0  0  0999 V2000
  142.6360  139.4400  151.1610 C   0  0  0  0  0  2  0  0  0  0  0  0
  145.5810  140.5150  153.3490 C   0  0  0  0  0  0  0  0  0  0  0  0
  144.4470  139.8410  152.8890 C   0  0  0  0  0  3  0  0  0  0  0  0
  143.8800  140.1510  151.6420 C   0  0  0  0  0  0  0  0  0  0  0  0
  144.4900  141.1210  150.8350 C   0  0  0  0  0  3  0  0  0  0  0  0
  145.6320  141.7880  151.2750 C   0  0  0  0  0  3  0  0  0  0  0  0
  146.1650  141.4890  152.5260 C   0  0  0  0  0  0  0  0  0  0  0  0
  146.2390  138.9630  155.0330 C   0  0  0  0  0  1  0  0  0  0  0  0
  146.1770  140.3030  154.5650 O   0  0  0  0  0  0  0  0  0  0  0  0
  147.2800  142.1560  152.9640 O   0  0  0  0  0  0  0  0  0  0  0  0
  147.9050  142.4800  152.3460 H   0  0  0  0  0  0  0  0  0  0  0  0
  142.5350  137.9520  151.5740 C   0  0  1  0  0  3  0  0  0  0  0  0
  141.4240  137.7300  152.6140 C   0  0  0  0  0  1  0  0  0  0  0  0
  142.3530  136.9930  150.3530 C   0  0  1  0  0  3  0  0  0  0  0  0
  141.9490  137.7270  149.0650 C   0  0  0  0  0  1  0  0  0  0  0  0
  143.5990  136.1190  150.0640 C   0  0  0  0  0  2  0  0  0  0  0  0
  144.9150  136.7410  150.4710 C   0  0  0  0  0  0  0  0  0  0  0  0
  145.5400  137.6870  149.6450 C   0  0  0  0  0  3  0  0  0  0  0  0
  146.7470  138.2740  150.0230 C   0  0  0  0  0  3  0  0  0  0  0  0
  147.3400  137.9270  151.2380 C   0  0  0  0  0  3  0  0  0  0  0  0
  146.7260  136.9940  152.0710 C   0  0  0  0  0  3  0  0  0  0  0  0
  145.5200  136.4030  151.6890 C   0  0  0  0  0  3  0  0  0  0  0  0
  1 12  1  0  0  0  0
  1  4  1  0  0  0  0
  2  9  1  0  0  0  0
  3  2  1  0  0  0  0
  4  3  2  0  0  0  0
  5  6  2  0  0  0  0
  5  4  1  0  0  0  0
  6  7  1  0  0  0  0
  7 10  1  0  0  0  0
  7  2  2  0  0  0  0
  9  8  1  0  0  0  0
 11 10  1  0  0  0  0
 12 13  1  1  0  0  0
 14 15  1  6  0  0  0
 14 12  1  0  0  0  0
 16 14  1  0  0  0  0
 16 17  1  0  0  0  0
 17 22  1  0  0  0  0
 18 19  1  0  0  0  0
 18 17  2  0  0  0  0
 19 20  2  0  0  0  0
 20 21  1  0  0  0  0
 22 21  2  0  0  0  0
M  END
>  <MODEL>
9

>  <REMARK>
 VINA RESULT:    -5.628      2.791      5.308
 INTER + INTRA:         -10.266
 INTER:                  -7.766
 INTRA:                  -2.499
 UNBOUND:                -2.499
  Name = CHEMBL3629600
  10 active torsions:
  status: ('A' for Active; 'I' for Inactive)
    1  A    between atoms: C_1  and  O_2
    2  A    between atoms: O_2  and  C_3
    3  A    between atoms: C_5  and  C_6
    4  A    between atoms: C_6  and  C_7
    5  A    between atoms: C_7  and  C_8
    6  A    between atoms: C_7  and  C_9
    7  A    between atoms: C_9  and  C_10
    8  A    between atoms: C_9  and  C_11
    9  A    between atoms: C_11  and  C_12
   10  A    between atoms: C_20  and  O_21
                            x       y       z     vdW  Elec       q    Type
                         _______ _______ _______ _____ _____    ______ ____

>  <TORSDO>
F 7

>  <SCORE>
-5.628

>  <RMSD_LB>
2.791

>  <RMSD_UB>
5.308

$$$$
