CHEMBL1708075
 OpenBabel10162523593D

 36 37  0  0  0  0  0  0  0  0999 V2000
  142.1060  136.0250  147.4570 C   0  0  0  0  0  2  0  0  0  0  0  0
  140.6710  136.3360  147.8810 C   0  0  0  0  0  2  0  0  0  0  0  0
  140.1860  137.0170  150.1690 N   0  0  0  0  0  0  0  0  0  0  0  0
  140.6530  137.4200  148.9380 C   0  0  0  0  0  0  0  0  0  0  0  0
  141.0180  138.5700  148.6980 O   0  0  0  0  0  0  0  0  0  0  0  0
  139.8840  136.0870  150.2850 H   0  0  0  0  0  0  0  0  0  0  0  0
  140.1260  137.9240  151.3030 C   0  0  0  0  0  2  0  0  0  0  0  0
  138.7380  137.9780  151.9450 C   0  0  0  0  0  2  0  0  0  0  0  0
  138.9020  137.7440  156.2720 C   0  0  0  0  0  0  0  0  0  0  0  0
  137.7210  137.4500  155.5780 C   0  0  0  0  0  3  0  0  0  0  0  0
  137.6670  137.5320  154.1830 C   0  0  0  0  0  3  0  0  0  0  0  0
  138.7920  137.9180  153.4510 C   0  0  0  0  0  0  0  0  0  0  0  0
  139.9620  138.2500  154.1450 C   0  0  0  0  0  3  0  0  0  0  0  0
  140.0300  138.1540  155.5440 C   0  0  0  0  0  0  0  0  0  0  0  0
  137.7440  137.7360  158.3480 C   0  0  0  0  0  1  0  0  0  0  0  0
  138.9800  137.7170  157.6410 O   0  0  0  0  0  0  0  0  0  0  0  0
  141.2490  138.5300  156.0520 O   0  0  0  0  0  0  0  0  0  0  0  0
  142.0160  139.4270  155.2560 C   0  0  0  0  0  1  0  0  0  0  0  0
  142.9040  135.3850  148.6000 C   0  0  0  0  0  2  0  0  0  0  0  0
  144.4200  135.4490  148.3820 C   0  0  0  0  0  2  0  0  0  0  0  0
  145.0350  136.7380  148.8970 C   0  0  0  0  0  0  0  0  0  0  0  0
  146.1140  136.7860  149.4790 O   0  0  0  0  0  0  0  0  0  0  0  0
  144.2600  137.8570  148.6660 N   0  0  0  0  0  0  0  0  0  0  0  0
  143.3500  137.7710  148.3010 H   0  0  0  0  0  0  0  0  0  0  0  0
  144.8120  139.1650  148.9700 C   0  0  0  0  0  2  0  0  0  0  0  0
  144.0220  139.9330  150.0270 C   0  0  0  0  0  2  0  0  0  0  0  0
  144.9390  140.4690  151.0980 C   0  0  0  0  0  0  0  0  0  0  0  0
  145.1820  141.8400  151.2070 C   0  0  0  0  0  3  0  0  0  0  0  0
  146.0040  142.3390  152.2240 C   0  0  0  0  0  3  0  0  0  0  0  0
  146.5950  141.4800  153.1610 C   0  0  0  0  0  0  0  0  0  0  0  0
  146.3230  140.1040  153.0790 C   0  0  0  0  0  0  0  0  0  0  0  0
  145.5160  139.6100  152.0410 C   0  0  0  0  0  3  0  0  0  0  0  0
  147.4500  141.9040  154.1430 O   0  0  0  0  0  0  0  0  0  0  0  0
  148.8400  141.9440  153.8510 C   0  0  0  0  0  1  0  0  0  0  0  0
  146.8080  139.1170  153.9020 O   0  0  0  0  0  0  0  0  0  0  0  0
  145.9050  138.6040  154.8750 C   0  0  0  0  0  1  0  0  0  0  0  0
  1  2  1  0  0  0  0
  1 19  1  0  0  0  0
  2  4  1  0  0  0  0
  3  6  1  0  0  0  0
  3  7  1  0  0  0  0
  4  3  1  0  0  0  0
  5  4  2  0  0  0  0
  7  8  1  0  0  0  0
  8 12  1  0  0  0  0
  9 16  1  0  0  0  0
 10  9  1  0  0  0  0
 11 10  2  0  0  0  0
 12 13  2  0  0  0  0
 12 11  1  0  0  0  0
 13 14  1  0  0  0  0
 14 17  1  0  0  0  0
 14  9  2  0  0  0  0
 16 15  1  0  0  0  0
 18 17  1  0  0  0  0
 20 19  1  0  0  0  0
 20 21  1  0  0  0  0
 21 22  2  0  0  0  0
 23 21  1  0  0  0  0
 23 25  1  0  0  0  0
 24 23  1  0  0  0  0
 25 26  1  0  0  0  0
 26 27  1  0  0  0  0
 27 28  2  0  0  0  0
 27 32  1  0  0  0  0
 28 29  1  0  0  0  0
 29 30  2  0  0  0  0
 30 33  1  0  0  0  0
 31 30  1  0  0  0  0
 31 35  1  0  0  0  0
 32 31  2  0  0  0  0
 34 33  1  0  0  0  0
 35 36  1  0  0  0  0
M  END
>  <MODEL>
1

>  <REMARK>
 VINA RESULT:    -6.264      0.000      0.000
 INTER + INTRA:         -13.558
 INTER:                 -12.127
 INTRA:                  -1.431
 UNBOUND:                -1.802
  Name = CHEMBL1708075
  19 active torsions:
  status: ('A' for Active; 'I' for Inactive)
    1  A    between atoms: C_1  and  O_2
    2  A    between atoms: O_2  and  C_3
    3  A    between atoms: C_6  and  C_7
    4  A    between atoms: C_7  and  C_8
    5  A    between atoms: C_8  and  N_9
    6  A    between atoms: C_10  and  C_12
    7  A    between atoms: C_12  and  C_13
    8  A    between atoms: C_13  and  C_14
    9  A    between atoms: C_14  and  C_15
   10  A    between atoms: C_15  and  C_16
   11  A    between atoms: N_18  and  C_19
   12  A    between atoms: C_19  and  C_20
   13  A    between atoms: C_20  and  C_21
   14  A    between atoms: C_24  and  O_25
   15  A    between atoms: O_25  and  C_26
   16  A    between atoms: C_27  and  O_28
   17  A    between atoms: O_28  and  C_29
   18  A    between atoms: C_32  and  O_33
   19  A    between atoms: O_33  and  C_34
                            x       y       z     vdW  Elec       q    Type
                         _______ _______ _______ _____ _____    ______ ____

>  <TORSDO>
F 15

>  <SCORE>
-6.264

>  <RMSD_LB>
0.000

>  <RMSD_UB>
0.000

$$$$
CHEMBL1708075
 OpenBabel10162523593D

 36 37  0  0  0  0  0  0  0  0999 V2000
  147.3060  138.4170  148.2210 C   0  0  0  0  0  2  0  0  0  0  0  0
  146.0250  138.5510  149.0440 C   0  0  0  0  0  2  0  0  0  0  0  0
  146.5390  140.8010  149.8200 N   0  0  0  0  0  0  0  0  0  0  0  0
  145.6230  140.0050  149.1690 C   0  0  0  0  0  0  0  0  0  0  0  0
  144.5540  140.4270  148.7300 O   0  0  0  0  0  0  0  0  0  0  0  0
  147.3640  140.3940  150.1700 H   0  0  0  0  0  0  0  0  0  0  0  0
  146.3240  142.2270  150.0040 C   0  0  0  0  0  2  0  0  0  0  0  0
  145.6040  142.5530  151.3150 C   0  0  0  0  0  2  0  0  0  0  0  0
  146.6040  139.8420  154.5490 C   0  0  0  0  0  0  0  0  0  0  0  0
  147.4810  140.8670  154.1690 C   0  0  0  0  0  3  0  0  0  0  0  0
  147.1610  141.7370  153.1210 C   0  0  0  0  0  3  0  0  0  0  0  0
  145.9580  141.5960  152.4250 C   0  0  0  0  0  0  0  0  0  0  0  0
  145.0980  140.5500  152.7780 C   0  0  0  0  0  3  0  0  0  0  0  0
  145.4040  139.6830  153.8390 C   0  0  0  0  0  0  0  0  0  0  0  0
  148.0550  138.1310  155.3350 C   0  0  0  0  0  1  0  0  0  0  0  0
  146.9040  138.9450  155.5410 O   0  0  0  0  0  0  0  0  0  0  0  0
  144.4520  138.7110  154.0350 O   0  0  0  0  0  0  0  0  0  0  0  0
  143.1090  139.0750  153.7380 C   0  0  0  0  0  1  0  0  0  0  0  0
  147.1050  137.4930  147.0140 C   0  0  0  0  0  2  0  0  0  0  0  0
  147.6040  136.0650  147.2610 C   0  0  0  0  0  2  0  0  0  0  0  0
  146.4740  135.0730  147.4630 C   0  0  0  0  0  0  0  0  0  0  0  0
  146.6520  133.9030  147.7850 O   0  0  0  0  0  0  0  0  0  0  0  0
  145.2190  135.6030  147.2370 N   0  0  0  0  0  0  0  0  0  0  0  0
  145.1160  136.5110  146.8700 H   0  0  0  0  0  0  0  0  0  0  0  0
  144.0530  134.7980  147.5520 C   0  0  0  0  0  2  0  0  0  0  0  0
  143.5360  134.9990  148.9740 C   0  0  0  0  0  2  0  0  0  0  0  0
  142.6930  136.2460  149.0680 C   0  0  0  0  0  0  0  0  0  0  0  0
  142.6410  136.9850  150.2530 C   0  0  0  0  0  3  0  0  0  0  0  0
  141.8880  138.1620  150.3260 C   0  0  0  0  0  3  0  0  0  0  0  0
  141.1750  138.6330  149.2140 C   0  0  0  0  0  0  0  0  0  0  0  0
  141.2540  137.9140  148.0090 C   0  0  0  0  0  0  0  0  0  0  0  0
  141.9940  136.7220  147.9520 C   0  0  0  0  0  3  0  0  0  0  0  0
  140.3790  139.7460  149.2430 O   0  0  0  0  0  0  0  0  0  0  0  0
  139.9110  140.2060  150.5030 C   0  0  0  0  0  1  0  0  0  0  0  0
  140.6300  138.2200  146.8250 O   0  0  0  0  0  0  0  0  0  0  0  0
  139.3440  137.6460  146.6210 C   0  0  0  0  0  1  0  0  0  0  0  0
  1  2  1  0  0  0  0
  2  4  1  0  0  0  0
  3  7  1  0  0  0  0
  3  6  1  0  0  0  0
  4  3  1  0  0  0  0
  5  4  2  0  0  0  0
  7  8  1  0  0  0  0
  8 12  1  0  0  0  0
  9 16  1  0  0  0  0
 10  9  1  0  0  0  0
 11 10  2  0  0  0  0
 12 13  2  0  0  0  0
 12 11  1  0  0  0  0
 13 14  1  0  0  0  0
 14 17  1  0  0  0  0
 14  9  2  0  0  0  0
 15 16  1  0  0  0  0
 18 17  1  0  0  0  0
 19 20  1  0  0  0  0
 19  1  1  0  0  0  0
 20 21  1  0  0  0  0
 21 22  2  0  0  0  0
 23 21  1  0  0  0  0
 23 25  1  0  0  0  0
 24 23  1  0  0  0  0
 25 26  1  0  0  0  0
 26 27  1  0  0  0  0
 27 28  1  0  0  0  0
 28 29  2  0  0  0  0
 30 33  1  0  0  0  0
 30 29  1  0  0  0  0
 31 30  2  0  0  0  0
 32 31  1  0  0  0  0
 32 27  2  0  0  0  0
 33 34  1  0  0  0  0
 35 31  1  0  0  0  0
 36 35  1  0  0  0  0
M  END
>  <MODEL>
2

>  <REMARK>
 VINA RESULT:    -6.143      3.216      6.955
 INTER + INTRA:         -13.333
 INTER:                 -11.251
 INTRA:                  -2.082
 UNBOUND:                -1.802
  Name = CHEMBL1708075
  19 active torsions:
  status: ('A' for Active; 'I' for Inactive)
    1  A    between atoms: C_1  and  O_2
    2  A    between atoms: O_2  and  C_3
    3  A    between atoms: C_6  and  C_7
    4  A    between atoms: C_7  and  C_8
    5  A    between atoms: C_8  and  N_9
    6  A    between atoms: C_10  and  C_12
    7  A    between atoms: C_12  and  C_13
    8  A    between atoms: C_13  and  C_14
    9  A    between atoms: C_14  and  C_15
   10  A    between atoms: C_15  and  C_16
   11  A    between atoms: N_18  and  C_19
   12  A    between atoms: C_19  and  C_20
   13  A    between atoms: C_20  and  C_21
   14  A    between atoms: C_24  and  O_25
   15  A    between atoms: O_25  and  C_26
   16  A    between atoms: C_27  and  O_28
   17  A    between atoms: O_28  and  C_29
   18  A    between atoms: C_32  and  O_33
   19  A    between atoms: O_33  and  C_34
                            x       y       z     vdW  Elec       q    Type
                         _______ _______ _______ _____ _____    ______ ____

>  <TORSDO>
F 15

>  <SCORE>
-6.143

>  <RMSD_LB>
3.216

>  <RMSD_UB>
6.955

$$$$
CHEMBL1708075
 OpenBabel10162523593D

 36 37  0  0  0  0  0  0  0  0999 V2000
  142.9840  138.8650  147.1370 C   0  0  0  0  0  2  0  0  0  0  0  0
  142.2090  137.5630  146.9370 C   0  0  0  0  0  2  0  0  0  0  0  0
  140.8300  138.6030  148.6550 N   0  0  0  0  0  0  0  0  0  0  0  0
  140.9220  137.5840  147.7340 C   0  0  0  0  0  0  0  0  0  0  0  0
  140.0400  136.7420  147.5690 O   0  0  0  0  0  0  0  0  0  0  0  0
  141.5850  139.2270  148.7540 H   0  0  0  0  0  0  0  0  0  0  0  0
  139.6510  138.7850  149.4850 C   0  0  0  0  0  2  0  0  0  0  0  0
  138.6400  139.7560  148.8710 C   0  0  0  0  0  2  0  0  0  0  0  0
  135.4280  137.6880  146.8190 C   0  0  0  0  0  0  0  0  0  0  0  0
  136.0990  138.7600  146.2140 C   0  0  0  0  0  3  0  0  0  0  0  0
  137.1310  139.4300  146.8790 C   0  0  0  0  0  3  0  0  0  0  0  0
  137.5090  139.0490  148.1680 C   0  0  0  0  0  0  0  0  0  0  0  0
  136.8140  138.0040  148.7890 C   0  0  0  0  0  3  0  0  0  0  0  0
  135.7890  137.3140  148.1230 C   0  0  0  0  0  0  0  0  0  0  0  0
  133.0910  137.6080  146.3890 C   0  0  0  0  0  1  0  0  0  0  0  0
  134.3840  137.0360  146.2150 O   0  0  0  0  0  0  0  0  0  0  0  0
  135.2140  136.3300  148.8880 O   0  0  0  0  0  0  0  0  0  0  0  0
  136.0520  135.2370  149.2450 C   0  0  0  0  0  1  0  0  0  0  0  0
  144.3730  138.6060  147.7320 C   0  0  0  0  0  2  0  0  0  0  0  0
  145.2500  137.7140  146.8460 C   0  0  0  0  0  2  0  0  0  0  0  0
  145.9390  136.6070  147.6230 C   0  0  0  0  0  0  0  0  0  0  0  0
  146.8480  135.9240  147.1620 O   0  0  0  0  0  0  0  0  0  0  0  0
  145.4390  136.4250  148.8970 N   0  0  0  0  0  0  0  0  0  0  0  0
  144.6360  136.9100  149.1950 H   0  0  0  0  0  0  0  0  0  0  0  0
  146.1200  135.5050  149.7900 C   0  0  0  0  0  2  0  0  0  0  0  0
  147.0990  136.1890  150.7430 C   0  0  0  0  0  2  0  0  0  0  0  0
  146.3600  136.9700  151.8010 C   0  0  0  0  0  0  0  0  0  0  0  0
  146.0580  136.3890  153.0350 C   0  0  0  0  0  3  0  0  0  0  0  0
  145.4050  137.1270  154.0280 C   0  0  0  0  0  3  0  0  0  0  0  0
  145.0470  138.4660  153.8160 C   0  0  0  0  0  0  0  0  0  0  0  0
  145.3830  139.0660  152.5900 C   0  0  0  0  0  0  0  0  0  0  0  0
  146.0160  138.3100  151.5910 C   0  0  0  0  0  3  0  0  0  0  0  0
  144.3600  139.2190  154.7290 O   0  0  0  0  0  0  0  0  0  0  0  0
  142.9420  139.2580  154.6370 C   0  0  0  0  0  1  0  0  0  0  0  0
  145.1160  140.3560  152.2040 O   0  0  0  0  0  0  0  0  0  0  0  0
  144.2100  140.5180  151.1190 C   0  0  0  0  0  1  0  0  0  0  0  0
  1 19  1  0  0  0  0
  2  1  1  0  0  0  0
  2  4  1  0  0  0  0
  3  6  1  0  0  0  0
  3  7  1  0  0  0  0
  4  3  1  0  0  0  0
  5  4  2  0  0  0  0
  8  7  1  0  0  0  0
  9 14  1  0  0  0  0
 10  9  2  0  0  0  0
 10 11  1  0  0  0  0
 11 12  2  0  0  0  0
 12 13  1  0  0  0  0
 12  8  1  0  0  0  0
 14 13  2  0  0  0  0
 14 17  1  0  0  0  0
 16 15  1  0  0  0  0
 16  9  1  0  0  0  0
 17 18  1  0  0  0  0
 20 21  1  0  0  0  0
 20 19  1  0  0  0  0
 21 23  1  0  0  0  0
 22 21  2  0  0  0  0
 23 24  1  0  0  0  0
 23 25  1  0  0  0  0
 25 26  1  0  0  0  0
 26 27  1  0  0  0  0
 27 28  1  0  0  0  0
 28 29  2  0  0  0  0
 30 29  1  0  0  0  0
 30 33  1  0  0  0  0
 31 30  2  0  0  0  0
 32 27  2  0  0  0  0
 32 31  1  0  0  0  0
 34 33  1  0  0  0  0
 35 31  1  0  0  0  0
 36 35  1  0  0  0  0
M  END
>  <MODEL>
3

>  <REMARK>
 VINA RESULT:    -5.061      3.478      5.923
 INTER + INTRA:         -11.300
 INTER:                  -9.659
 INTRA:                  -1.641
 UNBOUND:                -1.802
  Name = CHEMBL1708075
  19 active torsions:
  status: ('A' for Active; 'I' for Inactive)
    1  A    between atoms: C_1  and  O_2
    2  A    between atoms: O_2  and  C_3
    3  A    between atoms: C_6  and  C_7
    4  A    between atoms: C_7  and  C_8
    5  A    between atoms: C_8  and  N_9
    6  A    between atoms: C_10  and  C_12
    7  A    between atoms: C_12  and  C_13
    8  A    between atoms: C_13  and  C_14
    9  A    between atoms: C_14  and  C_15
   10  A    between atoms: C_15  and  C_16
   11  A    between atoms: N_18  and  C_19
   12  A    between atoms: C_19  and  C_20
   13  A    between atoms: C_20  and  C_21
   14  A    between atoms: C_24  and  O_25
   15  A    between atoms: O_25  and  C_26
   16  A    between atoms: C_27  and  O_28
   17  A    between atoms: O_28  and  C_29
   18  A    between atoms: C_32  and  O_33
   19  A    between atoms: O_33  and  C_34
                            x       y       z     vdW  Elec       q    Type
                         _______ _______ _______ _____ _____    ______ ____

>  <TORSDO>
F 15

>  <SCORE>
-5.061

>  <RMSD_LB>
3.478

>  <RMSD_UB>
5.923

$$$$
CHEMBL1708075
 OpenBabel10162523593D

 36 37  0  0  0  0  0  0  0  0999 V2000
  146.7470  137.0650  146.2980 C   0  0  0  0  0  2  0  0  0  0  0  0
  146.2970  138.1540  145.3260 C   0  0  0  0  0  2  0  0  0  0  0  0
  148.5940  138.9340  145.1070 N   0  0  0  0  0  0  0  0  0  0  0  0
  147.4450  138.5810  144.4360 C   0  0  0  0  0  0  0  0  0  0  0  0
  147.3420  138.6150  143.2100 O   0  0  0  0  0  0  0  0  0  0  0  0
  148.6000  138.9090  146.0910 H   0  0  0  0  0  0  0  0  0  0  0  0
  149.8000  139.3420  144.4050 C   0  0  0  0  0  2  0  0  0  0  0  0
  151.0460  138.5930  144.8840 C   0  0  0  0  0  2  0  0  0  0  0  0
  150.2470  134.4900  146.0380 C   0  0  0  0  0  0  0  0  0  0  0  0
  150.2180  134.8800  144.6920 C   0  0  0  0  0  3  0  0  0  0  0  0
  150.4690  136.2050  144.3220 C   0  0  0  0  0  3  0  0  0  0  0  0
  150.7480  137.1710  145.2900 C   0  0  0  0  0  0  0  0  0  0  0  0
  150.7400  136.7920  146.6380 C   0  0  0  0  0  3  0  0  0  0  0  0
  150.5060  135.4610  147.0180 C   0  0  0  0  0  0  0  0  0  0  0  0
  151.0580  132.3010  146.4890 C   0  0  0  0  0  1  0  0  0  0  0  0
  149.9630  133.2100  146.4420 O   0  0  0  0  0  0  0  0  0  0  0  0
  150.5250  135.2770  148.3790 O   0  0  0  0  0  0  0  0  0  0  0  0
  151.8080  135.2350  148.9920 C   0  0  0  0  0  1  0  0  0  0  0  0
  145.6170  136.0720  146.5920 C   0  0  0  0  0  2  0  0  0  0  0  0
  144.2590  136.5300  146.0490 C   0  0  0  0  0  2  0  0  0  0  0  0
  143.2800  136.9020  147.1490 C   0  0  0  0  0  0  0  0  0  0  0  0
  142.0730  136.6950  147.0770 O   0  0  0  0  0  0  0  0  0  0  0  0
  143.8700  137.5120  148.2380 N   0  0  0  0  0  0  0  0  0  0  0  0
  144.8210  137.7670  148.2160 H   0  0  0  0  0  0  0  0  0  0  0  0
  143.0640  137.7700  149.4170 C   0  0  0  0  0  2  0  0  0  0  0  0
  143.4530  136.9190  150.6230 C   0  0  0  0  0  2  0  0  0  0  0  0
  142.7430  137.3930  151.8660 C   0  0  0  0  0  0  0  0  0  0  0  0
  143.4630  137.9080  152.9470 C   0  0  0  0  0  3  0  0  0  0  0  0
  142.8000  138.3810  154.0840 C   0  0  0  0  0  3  0  0  0  0  0  0
  141.4010  138.3600  154.1650 C   0  0  0  0  0  0  0  0  0  0  0  0
  140.6690  137.8790  153.0660 C   0  0  0  0  0  0  0  0  0  0  0  0
  141.3440  137.3840  151.9390 C   0  0  0  0  0  3  0  0  0  0  0  0
  140.7010  138.7590  155.2720 O   0  0  0  0  0  0  0  0  0  0  0  0
  140.4770  137.8070  156.3040 C   0  0  0  0  0  1  0  0  0  0  0  0
  139.3040  137.7820  152.9630 O   0  0  0  0  0  0  0  0  0  0  0  0
  138.7270  138.2300  151.7420 C   0  0  0  0  0  1  0  0  0  0  0  0
  1 19  1  0  0  0  0
  2  1  1  0  0  0  0
  3  6  1  0  0  0  0
  4  3  1  0  0  0  0
  4  2  1  0  0  0  0
  5  4  2  0  0  0  0
  7  8  1  0  0  0  0
  7  3  1  0  0  0  0
  8 12  1  0  0  0  0
  9 16  1  0  0  0  0
  9 14  1  0  0  0  0
 10  9  2  0  0  0  0
 11 10  1  0  0  0  0
 11 12  2  0  0  0  0
 12 13  1  0  0  0  0
 13 14  2  0  0  0  0
 14 17  1  0  0  0  0
 16 15  1  0  0  0  0
 17 18  1  0  0  0  0
 20 19  1  0  0  0  0
 20 21  1  0  0  0  0
 21 23  1  0  0  0  0
 22 21  2  0  0  0  0
 23 25  1  0  0  0  0
 24 23  1  0  0  0  0
 25 26  1  0  0  0  0
 26 27  1  0  0  0  0
 27 32  2  0  0  0  0
 27 28  1  0  0  0  0
 28 29  2  0  0  0  0
 29 30  1  0  0  0  0
 30 33  1  0  0  0  0
 31 30  2  0  0  0  0
 32 31  1  0  0  0  0
 33 34  1  0  0  0  0
 35 31  1  0  0  0  0
 36 35  1  0  0  0  0
M  END
>  <MODEL>
4

>  <REMARK>
 VINA RESULT:    -4.811      4.626     10.041
 INTER + INTRA:         -10.832
 INTER:                  -9.361
 INTRA:                  -1.470
 UNBOUND:                -1.802
  Name = CHEMBL1708075
  19 active torsions:
  status: ('A' for Active; 'I' for Inactive)
    1  A    between atoms: C_1  and  O_2
    2  A    between atoms: O_2  and  C_3
    3  A    between atoms: C_6  and  C_7
    4  A    between atoms: C_7  and  C_8
    5  A    between atoms: C_8  and  N_9
    6  A    between atoms: C_10  and  C_12
    7  A    between atoms: C_12  and  C_13
    8  A    between atoms: C_13  and  C_14
    9  A    between atoms: C_14  and  C_15
   10  A    between atoms: C_15  and  C_16
   11  A    between atoms: N_18  and  C_19
   12  A    between atoms: C_19  and  C_20
   13  A    between atoms: C_20  and  C_21
   14  A    between atoms: C_24  and  O_25
   15  A    between atoms: O_25  and  C_26
   16  A    between atoms: C_27  and  O_28
   17  A    between atoms: O_28  and  C_29
   18  A    between atoms: C_32  and  O_33
   19  A    between atoms: O_33  and  C_34
                            x       y       z     vdW  Elec       q    Type
                         _______ _______ _______ _____ _____    ______ ____

>  <TORSDO>
F 15

>  <SCORE>
-4.811

>  <RMSD_LB>
4.626

>  <RMSD_UB>
10.041

$$$$
CHEMBL1708075
 OpenBabel10162523593D

 36 37  0  0  0  0  0  0  0  0999 V2000
  143.4450  139.2590  144.8650 C   0  0  0  0  0  2  0  0  0  0  0  0
  143.1410  138.0940  143.9230 C   0  0  0  0  0  2  0  0  0  0  0  0
  140.7900  137.7280  144.4410 N   0  0  0  0  0  0  0  0  0  0  0  0
  142.0620  137.2060  144.5060 C   0  0  0  0  0  0  0  0  0  0  0  0
  142.3190  136.1110  145.0050 O   0  0  0  0  0  0  0  0  0  0  0  0
  140.6590  138.6220  144.0520 H   0  0  0  0  0  0  0  0  0  0  0  0
  139.6340  136.9950  144.9300 C   0  0  0  0  0  2  0  0  0  0  0  0
  139.0010  137.6430  146.1650 C   0  0  0  0  0  2  0  0  0  0  0  0
  134.7510  138.3190  145.6370 C   0  0  0  0  0  0  0  0  0  0  0  0
  135.6770  139.3500  145.4290 C   0  0  0  0  0  3  0  0  0  0  0  0
  137.0470  139.1330  145.6060 C   0  0  0  0  0  3  0  0  0  0  0  0
  137.5210  137.8810  146.0030 C   0  0  0  0  0  0  0  0  0  0  0  0
  136.5950  136.8600  146.2480 C   0  0  0  0  0  3  0  0  0  0  0  0
  135.2190  137.0640  146.0570 C   0  0  0  0  0  0  0  0  0  0  0  0
  132.9080  138.7750  144.2060 C   0  0  0  0  0  1  0  0  0  0  0  0
  133.3980  138.5070  145.5160 O   0  0  0  0  0  0  0  0  0  0  0  0
  134.4630  135.9580  146.3570 O   0  0  0  0  0  0  0  0  0  0  0  0
  135.1590  134.8480  146.9110 C   0  0  0  0  0  1  0  0  0  0  0  0
  143.2550  138.8590  146.3330 C   0  0  0  0  0  2  0  0  0  0  0  0
  144.0540  139.7370  147.3030 C   0  0  0  0  0  2  0  0  0  0  0  0
  144.3590  139.0380  148.6150 C   0  0  0  0  0  0  0  0  0  0  0  0
  145.3670  138.3650  148.8030 O   0  0  0  0  0  0  0  0  0  0  0  0
  143.3870  139.2130  149.5800 N   0  0  0  0  0  0  0  0  0  0  0  0
  142.5390  139.6610  149.3620 H   0  0  0  0  0  0  0  0  0  0  0  0
  143.6410  138.7270  150.9240 C   0  0  0  0  0  2  0  0  0  0  0  0
  143.0550  137.3430  151.1950 C   0  0  0  0  0  2  0  0  0  0  0  0
  141.5470  137.3890  151.1950 C   0  0  0  0  0  0  0  0  0  0  0  0
  140.8220  137.0150  150.0610 C   0  0  0  0  0  3  0  0  0  0  0  0
  139.4230  137.0240  150.0760 C   0  0  0  0  0  3  0  0  0  0  0  0
  138.7150  137.3980  151.2270 C   0  0  0  0  0  0  0  0  0  0  0  0
  139.4400  137.7390  152.3820 C   0  0  0  0  0  0  0  0  0  0  0  0
  140.8430  137.7500  152.3500 C   0  0  0  0  0  3  0  0  0  0  0  0
  137.3500  137.4780  151.2820 O   0  0  0  0  0  0  0  0  0  0  0  0
  136.6000  136.2830  151.1150 C   0  0  0  0  0  1  0  0  0  0  0  0
  138.9230  138.1280  153.5930 O   0  0  0  0  0  0  0  0  0  0  0  0
  139.8440  138.6860  154.5240 C   0  0  0  0  0  1  0  0  0  0  0  0
  1 19  1  0  0  0  0
  2  4  1  0  0  0  0
  2  1  1  0  0  0  0
  3  4  1  0  0  0  0
  3  7  1  0  0  0  0
  4  5  2  0  0  0  0
  6  3  1  0  0  0  0
  7  8  1  0  0  0  0
  9 14  1  0  0  0  0
 10 11  1  0  0  0  0
 10  9  2  0  0  0  0
 11 12  2  0  0  0  0
 12  8  1  0  0  0  0
 12 13  1  0  0  0  0
 14 13  2  0  0  0  0
 14 17  1  0  0  0  0
 15 16  1  0  0  0  0
 16  9  1  0  0  0  0
 17 18  1  0  0  0  0
 19 20  1  0  0  0  0
 20 21  1  0  0  0  0
 21 22  2  0  0  0  0
 21 23  1  0  0  0  0
 23 25  1  0  0  0  0
 24 23  1  0  0  0  0
 25 26  1  0  0  0  0
 27 26  1  0  0  0  0
 27 32  1  0  0  0  0
 28 29  1  0  0  0  0
 28 27  2  0  0  0  0
 29 30  2  0  0  0  0
 30 33  1  0  0  0  0
 30 31  1  0  0  0  0
 31 35  1  0  0  0  0
 32 31  2  0  0  0  0
 34 33  1  0  0  0  0
 35 36  1  0  0  0  0
M  END
>  <MODEL>
5

>  <REMARK>
 VINA RESULT:    -4.811      4.252      8.106
 INTER + INTRA:         -10.831
 INTER:                  -9.487
 INTRA:                  -1.344
 UNBOUND:                -1.802
  Name = CHEMBL1708075
  19 active torsions:
  status: ('A' for Active; 'I' for Inactive)
    1  A    between atoms: C_1  and  O_2
    2  A    between atoms: O_2  and  C_3
    3  A    between atoms: C_6  and  C_7
    4  A    between atoms: C_7  and  C_8
    5  A    between atoms: C_8  and  N_9
    6  A    between atoms: C_10  and  C_12
    7  A    between atoms: C_12  and  C_13
    8  A    between atoms: C_13  and  C_14
    9  A    between atoms: C_14  and  C_15
   10  A    between atoms: C_15  and  C_16
   11  A    between atoms: N_18  and  C_19
   12  A    between atoms: C_19  and  C_20
   13  A    between atoms: C_20  and  C_21
   14  A    between atoms: C_24  and  O_25
   15  A    between atoms: O_25  and  C_26
   16  A    between atoms: C_27  and  O_28
   17  A    between atoms: O_28  and  C_29
   18  A    between atoms: C_32  and  O_33
   19  A    between atoms: O_33  and  C_34
                            x       y       z     vdW  Elec       q    Type
                         _______ _______ _______ _____ _____    ______ ____

>  <TORSDO>
F 15

>  <SCORE>
-4.811

>  <RMSD_LB>
4.252

>  <RMSD_UB>
8.106

$$$$
CHEMBL1708075
 OpenBabel10162523593D

 36 37  0  0  0  0  0  0  0  0999 V2000
  147.4510  138.0870  148.1800 C   0  0  0  0  0  2  0  0  0  0  0  0
  145.9890  138.4720  148.4050 C   0  0  0  0  0  2  0  0  0  0  0  0
  146.6210  140.5170  149.5680 N   0  0  0  0  0  0  0  0  0  0  0  0
  145.8530  139.9710  148.5640 C   0  0  0  0  0  0  0  0  0  0  0  0
  145.1020  140.6360  147.8510 O   0  0  0  0  0  0  0  0  0  0  0  0
  147.1810  139.9230  150.1180 H   0  0  0  0  0  0  0  0  0  0  0  0
  146.6310  141.9450  149.8380 C   0  0  0  0  0  2  0  0  0  0  0  0
  145.7300  142.3300  151.0150 C   0  0  0  0  0  2  0  0  0  0  0  0
  146.3210  139.8460  154.5190 C   0  0  0  0  0  0  0  0  0  0  0  0
  147.2630  140.8170  154.1560 C   0  0  0  0  0  3  0  0  0  0  0  0
  147.0750  141.6140  153.0220 C   0  0  0  0  0  3  0  0  0  0  0  0
  145.9430  141.4510  152.2210 C   0  0  0  0  0  0  0  0  0  0  0  0
  145.0190  140.4550  152.5600 C   0  0  0  0  0  3  0  0  0  0  0  0
  145.1910  139.6630  153.7060 C   0  0  0  0  0  0  0  0  0  0  0  0
  147.7690  138.3980  155.7280 C   0  0  0  0  0  1  0  0  0  0  0  0
  146.4930  139.0180  155.5990 O   0  0  0  0  0  0  0  0  0  0  0  0
  144.1950  138.7320  153.8740 O   0  0  0  0  0  0  0  0  0  0  0  0
  142.9290  139.0550  153.3110 C   0  0  0  0  0  1  0  0  0  0  0  0
  147.6240  137.2610  146.9000 C   0  0  0  0  0  2  0  0  0  0  0  0
  148.1030  135.8300  147.1690 C   0  0  0  0  0  2  0  0  0  0  0  0
  147.3340  134.7920  146.3710 C   0  0  0  0  0  0  0  0  0  0  0  0
  147.7720  133.6750  146.1180 O   0  0  0  0  0  0  0  0  0  0  0  0
  146.0960  135.2240  145.9400 N   0  0  0  0  0  0  0  0  0  0  0  0
  145.8220  136.1620  146.0610 H   0  0  0  0  0  0  0  0  0  0  0  0
  145.2040  134.2710  145.3060 C   0  0  0  0  0  2  0  0  0  0  0  0
  144.4940  134.8230  144.0720 C   0  0  0  0  0  2  0  0  0  0  0  0
  145.0720  134.2310  142.8110 C   0  0  0  0  0  0  0  0  0  0  0  0
  144.5490  134.5680  141.5600 C   0  0  0  0  0  3  0  0  0  0  0  0
  145.1100  134.0460  140.3900 C   0  0  0  0  0  3  0  0  0  0  0  0
  146.2130  133.1820  140.4400 C   0  0  0  0  0  0  0  0  0  0  0  0
  146.7660  132.8700  141.6940 C   0  0  0  0  0  0  0  0  0  0  0  0
  146.1820  133.3790  142.8640 C   0  0  0  0  0  3  0  0  0  0  0  0
  146.7680  132.5980  139.3340 O   0  0  0  0  0  0  0  0  0  0  0  0
  145.8980  132.0090  138.3770 C   0  0  0  0  0  1  0  0  0  0  0  0
  147.8380  132.0480  141.9390 O   0  0  0  0  0  0  0  0  0  0  0  0
  147.5680  130.8540  142.6660 C   0  0  0  0  0  1  0  0  0  0  0  0
  1  2  1  0  0  0  0
  2  4  1  0  0  0  0
  3  7  1  0  0  0  0
  3  6  1  0  0  0  0
  4  3  1  0  0  0  0
  5  4  2  0  0  0  0
  7  8  1  0  0  0  0
  8 12  1  0  0  0  0
  9 16  1  0  0  0  0
 10  9  1  0  0  0  0
 11 10  2  0  0  0  0
 12 13  2  0  0  0  0
 12 11  1  0  0  0  0
 13 14  1  0  0  0  0
 14 17  1  0  0  0  0
 14  9  2  0  0  0  0
 16 15  1  0  0  0  0
 18 17  1  0  0  0  0
 19 20  1  0  0  0  0
 19  1  1  0  0  0  0
 21 20  1  0  0  0  0
 22 21  2  0  0  0  0
 23 24  1  0  0  0  0
 23 21  1  0  0  0  0
 25 23  1  0  0  0  0
 26 25  1  0  0  0  0
 27 32  1  0  0  0  0
 27 26  1  0  0  0  0
 28 27  2  0  0  0  0
 29 30  2  0  0  0  0
 29 28  1  0  0  0  0
 30 31  1  0  0  0  0
 31 35  1  0  0  0  0
 31 32  2  0  0  0  0
 33 30  1  0  0  0  0
 34 33  1  0  0  0  0
 35 36  1  0  0  0  0
M  END
>  <MODEL>
6

>  <REMARK>
 VINA RESULT:    -4.677      5.056      9.635
 INTER + INTRA:         -10.581
 INTER:                  -9.395
 INTRA:                  -1.186
 UNBOUND:                -1.802
  Name = CHEMBL1708075
  19 active torsions:
  status: ('A' for Active; 'I' for Inactive)
    1  A    between atoms: C_1  and  O_2
    2  A    between atoms: O_2  and  C_3
    3  A    between atoms: C_6  and  C_7
    4  A    between atoms: C_7  and  C_8
    5  A    between atoms: C_8  and  N_9
    6  A    between atoms: C_10  and  C_12
    7  A    between atoms: C_12  and  C_13
    8  A    between atoms: C_13  and  C_14
    9  A    between atoms: C_14  and  C_15
   10  A    between atoms: C_15  and  C_16
   11  A    between atoms: N_18  and  C_19
   12  A    between atoms: C_19  and  C_20
   13  A    between atoms: C_20  and  C_21
   14  A    between atoms: C_24  and  O_25
   15  A    between atoms: O_25  and  C_26
   16  A    between atoms: C_27  and  O_28
   17  A    between atoms: O_28  and  C_29
   18  A    between atoms: C_32  and  O_33
   19  A    between atoms: O_33  and  C_34
                            x       y       z     vdW  Elec       q    Type
                         _______ _______ _______ _____ _____    ______ ____

>  <TORSDO>
F 15

>  <SCORE>
-4.677

>  <RMSD_LB>
5.056

>  <RMSD_UB>
9.635

$$$$
CHEMBL1708075
 OpenBabel10162523593D

 36 37  0  0  0  0  0  0  0  0999 V2000
  147.4500  138.0000  148.1190 C   0  0  0  0  0  2  0  0  0  0  0  0
  145.9740  138.3760  148.2510 C   0  0  0  0  0  2  0  0  0  0  0  0
  146.5440  140.4120  149.4610 N   0  0  0  0  0  0  0  0  0  0  0  0
  145.8200  139.8720  148.4220 C   0  0  0  0  0  0  0  0  0  0  0  0
  145.0910  140.5400  147.6880 O   0  0  0  0  0  0  0  0  0  0  0  0
  147.0870  139.8150  150.0260 H   0  0  0  0  0  0  0  0  0  0  0  0
  146.5310  141.8360  149.7490 C   0  0  0  0  0  2  0  0  0  0  0  0
  145.5830  142.2010  150.8940 C   0  0  0  0  0  2  0  0  0  0  0  0
  146.2020  139.8160  154.4630 C   0  0  0  0  0  0  0  0  0  0  0  0
  147.1490  140.7670  154.0560 C   0  0  0  0  0  3  0  0  0  0  0  0
  146.9510  141.5310  152.9020 C   0  0  0  0  0  3  0  0  0  0  0  0
  145.8050  141.3560  152.1230 C   0  0  0  0  0  0  0  0  0  0  0  0
  144.8770  140.3800  152.5060 C   0  0  0  0  0  3  0  0  0  0  0  0
  145.0590  139.6210  153.6720 C   0  0  0  0  0  0  0  0  0  0  0  0
  147.6680  138.4240  155.7140 C   0  0  0  0  0  1  0  0  0  0  0  0
  146.3830  139.0190  155.5640 O   0  0  0  0  0  0  0  0  0  0  0  0
  144.0560  138.7060  153.8830 O   0  0  0  0  0  0  0  0  0  0  0  0
  142.7760  139.0400  153.3570 C   0  0  0  0  0  1  0  0  0  0  0  0
  147.7260  137.2580  146.8060 C   0  0  0  0  0  2  0  0  0  0  0  0
  149.1130  137.5580  146.2270 C   0  0  0  0  0  2  0  0  0  0  0  0
  149.7310  136.3600  145.5300 C   0  0  0  0  0  0  0  0  0  0  0  0
  150.5760  136.4560  144.6450 O   0  0  0  0  0  0  0  0  0  0  0  0
  149.2460  135.1450  145.9710 N   0  0  0  0  0  0  0  0  0  0  0  0
  148.4890  135.1060  146.5980 H   0  0  0  0  0  0  0  0  0  0  0  0
  149.8740  133.9260  145.4940 C   0  0  0  0  0  2  0  0  0  0  0  0
  148.8910  132.7800  145.2660 C   0  0  0  0  0  2  0  0  0  0  0  0
  148.6250  132.5860  143.7940 C   0  0  0  0  0  0  0  0  0  0  0  0
  147.7560  131.5850  143.3530 C   0  0  0  0  0  3  0  0  0  0  0  0
  147.4820  131.4300  141.9900 C   0  0  0  0  0  3  0  0  0  0  0  0
  148.0630  132.2780  141.0360 C   0  0  0  0  0  0  0  0  0  0  0  0
  148.9080  133.3100  141.4780 C   0  0  0  0  0  0  0  0  0  0  0  0
  149.1950  133.4420  142.8460 C   0  0  0  0  0  3  0  0  0  0  0  0
  147.8760  132.1390  139.6870 O   0  0  0  0  0  0  0  0  0  0  0  0
  147.9510  130.8350  139.1280 C   0  0  0  0  0  1  0  0  0  0  0  0
  149.5620  134.2310  140.6970 O   0  0  0  0  0  0  0  0  0  0  0  0
  150.9830  134.1470  140.6740 C   0  0  0  0  0  1  0  0  0  0  0  0
  1  2  1  0  0  0  0
  2  4  1  0  0  0  0
  3  7  1  0  0  0  0
  3  6  1  0  0  0  0
  4  3  1  0  0  0  0
  5  4  2  0  0  0  0
  7  8  1  0  0  0  0
  8 12  1  0  0  0  0
  9 16  1  0  0  0  0
 10  9  1  0  0  0  0
 11 10  2  0  0  0  0
 12 13  2  0  0  0  0
 12 11  1  0  0  0  0
 13 14  1  0  0  0  0
 14 17  1  0  0  0  0
 14  9  2  0  0  0  0
 16 15  1  0  0  0  0
 18 17  1  0  0  0  0
 19  1  1  0  0  0  0
 20 19  1  0  0  0  0
 21 23  1  0  0  0  0
 21 20  1  0  0  0  0
 22 21  2  0  0  0  0
 23 24  1  0  0  0  0
 25 23  1  0  0  0  0
 26 25  1  0  0  0  0
 27 26  1  0  0  0  0
 28 27  1  0  0  0  0
 29 28  2  0  0  0  0
 30 31  2  0  0  0  0
 30 29  1  0  0  0  0
 31 32  1  0  0  0  0
 32 27  2  0  0  0  0
 33 30  1  0  0  0  0
 34 33  1  0  0  0  0
 35 31  1  0  0  0  0
 36 35  1  0  0  0  0
M  END
>  <MODEL>
7

>  <REMARK>
 VINA RESULT:    -4.551      5.728      9.996
 INTER + INTRA:         -10.344
 INTER:                  -9.206
 INTRA:                  -1.138
 UNBOUND:                -1.802
  Name = CHEMBL1708075
  19 active torsions:
  status: ('A' for Active; 'I' for Inactive)
    1  A    between atoms: C_1  and  O_2
    2  A    between atoms: O_2  and  C_3
    3  A    between atoms: C_6  and  C_7
    4  A    between atoms: C_7  and  C_8
    5  A    between atoms: C_8  and  N_9
    6  A    between atoms: C_10  and  C_12
    7  A    between atoms: C_12  and  C_13
    8  A    between atoms: C_13  and  C_14
    9  A    between atoms: C_14  and  C_15
   10  A    between atoms: C_15  and  C_16
   11  A    between atoms: N_18  and  C_19
   12  A    between atoms: C_19  and  C_20
   13  A    between atoms: C_20  and  C_21
   14  A    between atoms: C_24  and  O_25
   15  A    between atoms: O_25  and  C_26
   16  A    between atoms: C_27  and  O_28
   17  A    between atoms: O_28  and  C_29
   18  A    between atoms: C_32  and  O_33
   19  A    between atoms: O_33  and  C_34
                            x       y       z     vdW  Elec       q    Type
                         _______ _______ _______ _____ _____    ______ ____

>  <TORSDO>
F 15

>  <SCORE>
-4.551

>  <RMSD_LB>
5.728

>  <RMSD_UB>
9.996

$$$$
CHEMBL1708075
 OpenBabel10162523593D

 36 37  0  0  0  0  0  0  0  0999 V2000
  143.8520  135.6990  145.7270 C   0  0  0  0  0  2  0  0  0  0  0  0
  143.3600  136.8210  146.6400 C   0  0  0  0  0  2  0  0  0  0  0  0
  143.2390  137.9330  144.4760 N   0  0  0  0  0  0  0  0  0  0  0  0
  143.0130  138.0520  145.8290 C   0  0  0  0  0  0  0  0  0  0  0  0
  142.5740  139.0750  146.3530 O   0  0  0  0  0  0  0  0  0  0  0  0
  143.6160  137.0940  144.1260 H   0  0  0  0  0  0  0  0  0  0  0  0
  142.9350  139.0100  143.5490 C   0  0  0  0  0  2  0  0  0  0  0  0
  144.1240  139.3770  142.6580 C   0  0  0  0  0  2  0  0  0  0  0  0
  147.5880  136.8410  143.2720 C   0  0  0  0  0  0  0  0  0  0  0  0
  146.6350  136.5370  142.2900 C   0  0  0  0  0  3  0  0  0  0  0  0
  145.5150  137.3520  142.0970 C   0  0  0  0  0  3  0  0  0  0  0  0
  145.3190  138.4860  142.8880 C   0  0  0  0  0  0  0  0  0  0  0  0
  146.2480  138.7710  143.8950 C   0  0  0  0  0  3  0  0  0  0  0  0
  147.3840  137.9680  144.0840 C   0  0  0  0  0  0  0  0  0  0  0  0
  149.8130  136.2430  142.6870 C   0  0  0  0  0  1  0  0  0  0  0  0
  148.6740  136.0420  143.5190 O   0  0  0  0  0  0  0  0  0  0  0  0
  148.1770  138.3910  145.1230 O   0  0  0  0  0  0  0  0  0  0  0  0
  149.1760  139.3530  144.8040 C   0  0  0  0  0  1  0  0  0  0  0  0
  144.8950  134.8200  146.4290 C   0  0  0  0  0  2  0  0  0  0  0  0
  146.0090  134.3450  145.4900 C   0  0  0  0  0  2  0  0  0  0  0  0
  147.2620  133.9170  146.2320 C   0  0  0  0  0  0  0  0  0  0  0  0
  148.3270  133.6730  145.6740 O   0  0  0  0  0  0  0  0  0  0  0  0
  147.0930  133.8090  147.5980 N   0  0  0  0  0  0  0  0  0  0  0  0
  146.1990  133.9000  148.0010 H   0  0  0  0  0  0  0  0  0  0  0  0
  148.2560  133.5620  148.4300 C   0  0  0  0  0  2  0  0  0  0  0  0
  148.9050  134.8340  148.9690 C   0  0  0  0  0  2  0  0  0  0  0  0
  147.8660  135.8970  149.2280 C   0  0  0  0  0  0  0  0  0  0  0  0
  147.6570  136.9290  148.3090 C   0  0  0  0  0  3  0  0  0  0  0  0
  146.6680  137.8930  148.5340 C   0  0  0  0  0  3  0  0  0  0  0  0
  145.8590  137.8440  149.6790 C   0  0  0  0  0  0  0  0  0  0  0  0
  146.0410  136.7880  150.5870 C   0  0  0  0  0  0  0  0  0  0  0  0
  147.0510  135.8390  150.3650 C   0  0  0  0  0  3  0  0  0  0  0  0
  144.9150  138.7890  149.9780 O   0  0  0  0  0  0  0  0  0  0  0  0
  144.7040  139.8450  149.0510 C   0  0  0  0  0  1  0  0  0  0  0  0
  145.3480  136.5770  151.7540 O   0  0  0  0  0  0  0  0  0  0  0  0
  146.0830  136.7290  152.9630 C   0  0  0  0  0  1  0  0  0  0  0  0
  1 19  1  0  0  0  0
  1  2  1  0  0  0  0
  3  4  1  0  0  0  0
  4  5  2  0  0  0  0
  4  2  1  0  0  0  0
  6  3  1  0  0  0  0
  7  3  1  0  0  0  0
  8 12  1  0  0  0  0
  8  7  1  0  0  0  0
  9 16  1  0  0  0  0
  9 14  1  0  0  0  0
 10  9  2  0  0  0  0
 11 10  1  0  0  0  0
 11 12  2  0  0  0  0
 12 13  1  0  0  0  0
 13 14  2  0  0  0  0
 14 17  1  0  0  0  0
 15 16  1  0  0  0  0
 18 17  1  0  0  0  0
 20 21  1  0  0  0  0
 20 19  1  0  0  0  0
 21 23  1  0  0  0  0
 22 21  2  0  0  0  0
 23 24  1  0  0  0  0
 23 25  1  0  0  0  0
 25 26  1  0  0  0  0
 26 27  1  0  0  0  0
 27 32  1  0  0  0  0
 28 29  1  0  0  0  0
 28 27  2  0  0  0  0
 29 30  2  0  0  0  0
 30 33  1  0  0  0  0
 30 31  1  0  0  0  0
 31 35  1  0  0  0  0
 32 31  2  0  0  0  0
 34 33  1  0  0  0  0
 35 36  1  0  0  0  0
M  END
>  <MODEL>
8

>  <REMARK>
 VINA RESULT:    -4.498      5.301      9.293
 INTER + INTRA:         -10.244
 INTER:                  -7.555
 INTRA:                  -2.689
 UNBOUND:                -1.802
  Name = CHEMBL1708075
  19 active torsions:
  status: ('A' for Active; 'I' for Inactive)
    1  A    between atoms: C_1  and  O_2
    2  A    between atoms: O_2  and  C_3
    3  A    between atoms: C_6  and  C_7
    4  A    between atoms: C_7  and  C_8
    5  A    between atoms: C_8  and  N_9
    6  A    between atoms: C_10  and  C_12
    7  A    between atoms: C_12  and  C_13
    8  A    between atoms: C_13  and  C_14
    9  A    between atoms: C_14  and  C_15
   10  A    between atoms: C_15  and  C_16
   11  A    between atoms: N_18  and  C_19
   12  A    between atoms: C_19  and  C_20
   13  A    between atoms: C_20  and  C_21
   14  A    between atoms: C_24  and  O_25
   15  A    between atoms: O_25  and  C_26
   16  A    between atoms: C_27  and  O_28
   17  A    between atoms: O_28  and  C_29
   18  A    between atoms: C_32  and  O_33
   19  A    between atoms: O_33  and  C_34
                            x       y       z     vdW  Elec       q    Type
                         _______ _______ _______ _____ _____    ______ ____

>  <TORSDO>
F 15

>  <SCORE>
-4.498

>  <RMSD_LB>
5.301

>  <RMSD_UB>
9.293

$$$$
CHEMBL1708075
 OpenBabel10162523593D

 36 37  0  0  0  0  0  0  0  0999 V2000
  122.7780  129.9500  130.2990 C   0  0  0  0  0  2  0  0  0  0  0  0
  124.1190  129.6140  129.6490 C   0  0  0  0  0  2  0  0  0  0  0  0
  124.3140  127.5840  130.9810 N   0  0  0  0  0  0  0  0  0  0  0  0
  124.9460  128.7330  130.5620 C   0  0  0  0  0  0  0  0  0  0  0  0
  126.0880  129.0390  130.9030 O   0  0  0  0  0  0  0  0  0  0  0  0
  123.3890  127.4140  130.6900 H   0  0  0  0  0  0  0  0  0  0  0  0
  124.9740  126.6140  131.8390 C   0  0  0  0  0  2  0  0  0  0  0  0
  125.4720  125.3860  131.0700 C   0  0  0  0  0  2  0  0  0  0  0  0
  124.0390  121.6550  132.7510 C   0  0  0  0  0  0  0  0  0  0  0  0
  123.3760  122.8620  133.0050 C   0  0  0  0  0  3  0  0  0  0  0  0
  123.8420  124.0660  132.4680 C   0  0  0  0  0  3  0  0  0  0  0  0
  124.9880  124.0900  131.6700 C   0  0  0  0  0  0  0  0  0  0  0  0
  125.6740  122.8910  131.4460 C   0  0  0  0  0  3  0  0  0  0  0  0
  125.2040  121.6750  131.9680 C   0  0  0  0  0  0  0  0  0  0  0  0
  122.7450  120.5390  134.4040 C   0  0  0  0  0  1  0  0  0  0  0  0
  123.6370  120.4620  133.2960 O   0  0  0  0  0  0  0  0  0  0  0  0
  126.0090  120.6070  131.6570 O   0  0  0  0  0  0  0  0  0  0  0  0
  127.3470  120.9130  131.2800 C   0  0  0  0  0  1  0  0  0  0  0  0
  122.5170  131.4610  130.3010 C   0  0  0  0  0  2  0  0  0  0  0  0
  123.7590  132.2850  130.6580 C   0  0  0  0  0  2  0  0  0  0  0  0
  124.1680  132.1320  132.1120 C   0  0  0  0  0  0  0  0  0  0  0  0
  125.3250  131.9390  132.4710 O   0  0  0  0  0  0  0  0  0  0  0  0
  123.1140  132.2130  133.0000 N   0  0  0  0  0  0  0  0  0  0  0  0
  122.1860  132.2530  132.6750 H   0  0  0  0  0  0  0  0  0  0  0  0
  123.3990  132.2410  134.4230 C   0  0  0  0  0  2  0  0  0  0  0  0
  123.5170  130.8540  135.0510 C   0  0  0  0  0  2  0  0  0  0  0  0
  122.1810  130.1560  135.0650 C   0  0  0  0  0  0  0  0  0  0  0  0
  121.0910  130.7140  135.7380 C   0  0  0  0  0  3  0  0  0  0  0  0
  119.8430  130.0830  135.7200 C   0  0  0  0  0  3  0  0  0  0  0  0
  119.6510  128.8830  135.0210 C   0  0  0  0  0  0  0  0  0  0  0  0
  120.7340  128.3370  134.3100 C   0  0  0  0  0  0  0  0  0  0  0  0
  121.9880  128.9650  134.3550 C   0  0  0  0  0  3  0  0  0  0  0  0
  118.4690  128.1930  135.0120 O   0  0  0  0  0  0  0  0  0  0  0  0
  118.1780  127.3440  136.1140 C   0  0  0  0  0  1  0  0  0  0  0  0
  120.7350  127.1780  133.5740 O   0  0  0  0  0  0  0  0  0  0  0  0
  121.1890  126.0050  134.2400 C   0  0  0  0  0  1  0  0  0  0  0  0
  1 19  1  0  0  0  0
  2  1  1  0  0  0  0
  2  4  1  0  0  0  0
  3  7  1  0  0  0  0
  4  5  2  0  0  0  0
  4  3  1  0  0  0  0
  6  3  1  0  0  0  0
  8 12  1  0  0  0  0
  8  7  1  0  0  0  0
  9 10  1  0  0  0  0
  9 16  1  0  0  0  0
 11 10  2  0  0  0  0
 12 11  1  0  0  0  0
 13 12  2  0  0  0  0
 13 14  1  0  0  0  0
 14  9  2  0  0  0  0
 16 15  1  0  0  0  0
 17 14  1  0  0  0  0
 18 17  1  0  0  0  0
 19 20  1  0  0  0  0
 20 21  1  0  0  0  0
 21 22  2  0  0  0  0
 21 23  1  0  0  0  0
 23 25  1  0  0  0  0
 24 23  1  0  0  0  0
 25 26  1  0  0  0  0
 26 27  1  0  0  0  0
 27 28  1  0  0  0  0
 29 28  2  0  0  0  0
 30 29  1  0  0  0  0
 31 32  1  0  0  0  0
 31 30  2  0  0  0  0
 32 27  2  0  0  0  0
 33 30  1  0  0  0  0
 33 34  1  0  0  0  0
 35 36  1  0  0  0  0
 35 31  1  0  0  0  0
M  END
>  <MODEL>
9

>  <REMARK>
 VINA RESULT:    -4.405     27.396     30.564
 INTER + INTRA:         -10.070
 INTER:                  -8.268
 INTRA:                  -1.802
 UNBOUND:                -1.802
  Name = CHEMBL1708075
  19 active torsions:
  status: ('A' for Active; 'I' for Inactive)
    1  A    between atoms: C_1  and  O_2
    2  A    between atoms: O_2  and  C_3
    3  A    between atoms: C_6  and  C_7
    4  A    between atoms: C_7  and  C_8
    5  A    between atoms: C_8  and  N_9
    6  A    between atoms: C_10  and  C_12
    7  A    between atoms: C_12  and  C_13
    8  A    between atoms: C_13  and  C_14
    9  A    between atoms: C_14  and  C_15
   10  A    between atoms: C_15  and  C_16
   11  A    between atoms: N_18  and  C_19
   12  A    between atoms: C_19  and  C_20
   13  A    between atoms: C_20  and  C_21
   14  A    between atoms: C_24  and  O_25
   15  A    between atoms: O_25  and  C_26
   16  A    between atoms: C_27  and  O_28
   17  A    between atoms: O_28  and  C_29
   18  A    between atoms: C_32  and  O_33
   19  A    between atoms: O_33  and  C_34
                            x       y       z     vdW  Elec       q    Type
                         _______ _______ _______ _____ _____    ______ ____

>  <TORSDO>
F 15

>  <SCORE>
-4.405

>  <RMSD_LB>
27.396

>  <RMSD_UB>
30.564

$$$$
