CHEMBL3454560
 OpenBabel10162523403D

 23 24  0  0  0  0  0  0  0  0999 V2000
  134.4230  135.1180  152.3690 N   0  0  0  0  0  0  0  0  0  0  0  0
  134.4990  135.4010  153.7200 C   0  0  0  0  0  0  0  0  0  0  0  0
  133.5550  135.2600  154.5030 O   0  0  0  0  0  0  0  0  0  0  0  0
  135.2370  135.1940  151.8190 H   0  0  0  0  0  0  0  0  0  0  0  0
  133.1880  134.7170  151.7400 C   0  0  0  0  0  2  0  0  0  0  0  0
  133.2620  134.9280  147.9060 C   0  0  0  0  0  0  0  0  0  0  0  0
  133.1320  135.2910  149.2540 C   0  0  0  0  0  3  0  0  0  0  0  0
  133.3560  134.3570  150.2820 C   0  0  0  0  0  0  0  0  0  0  0  0
  133.7180  133.0460  149.9330 C   0  0  0  0  0  3  0  0  0  0  0  0
  133.8440  132.6710  148.5960 C   0  0  0  0  0  3  0  0  0  0  0  0
  133.6170  133.6110  147.5900 C   0  0  0  0  0  0  0  0  0  0  0  0
  132.5100  137.0520  147.1280 C   0  0  0  0  0  1  0  0  0  0  0  0
  133.0640  135.7760  146.8450 O   0  0  0  0  0  0  0  0  0  0  0  0
  133.7430  133.2370  146.2750 O   0  0  0  0  0  0  0  0  0  0  0  0
  134.4440  132.6730  146.0140 H   0  0  0  0  0  0  0  0  0  0  0  0
  135.8960  135.8240  154.1810 C   0  0  0  0  0  2  0  0  0  0  0  0
  135.8600  136.8370  155.1820 O   0  0  0  0  0  0  0  0  0  0  0  0
  136.6520  136.5460  156.3480 C   0  0  0  0  0  3  0  0  0  0  0  0
  135.8360  135.5540  157.1870 C   0  0  0  0  0  2  0  0  0  0  0  0
  136.4500  135.2750  158.5550 C   0  0  0  0  0  2  0  0  0  0  0  0
  136.7130  136.5650  159.3240 C   0  0  0  0  0  2  0  0  0  0  0  0
  137.5890  137.5100  158.5150 C   0  0  0  0  0  2  0  0  0  0  0  0
  136.9650  137.8140  157.1590 C   0  0  0  0  0  2  0  0  0  0  0  0
  1  2  1  0  0  0  0
  2 16  1  0  0  0  0
  2  3  2  0  0  0  0
  4  1  1  0  0  0  0
  5  1  1  0  0  0  0
  6  7  1  0  0  0  0
  7  8  2  0  0  0  0
  8  5  1  0  0  0  0
  9  8  1  0  0  0  0
 10  9  2  0  0  0  0
 11  6  2  0  0  0  0
 11 10  1  0  0  0  0
 13 12  1  0  0  0  0
 13  6  1  0  0  0  0
 14 11  1  0  0  0  0
 15 14  1  0  0  0  0
 16 17  1  0  0  0  0
 17 18  1  0  0  0  0
 18 23  1  0  0  0  0
 18 19  1  0  0  0  0
 19 20  1  0  0  0  0
 20 21  1  0  0  0  0
 22 21  1  0  0  0  0
 23 22  1  0  0  0  0
M  END
>  <MODEL>
1

>  <REMARK>
 VINA RESULT:    -6.940      0.000      0.000
 INTER + INTRA:          -9.990
 INTER:                  -9.610
 INTRA:                  -0.379
 UNBOUND:                -0.413
  Name = CHEMBL3454560
  8 active torsions:
  status: ('A' for Active; 'I' for Inactive)
    1  A    between atoms: C_1  and  O_2
    2  A    between atoms: O_2  and  C_3
    3  A    between atoms: C_5  and  C_6
    4  A    between atoms: C_6  and  N_7
    5  A    between atoms: C_8  and  C_10
    6  A    between atoms: C_10  and  O_11
    7  A    between atoms: O_11  and  C_12
    8  A    between atoms: C_20  and  O_21
                            x       y       z     vdW  Elec       q    Type
                         _______ _______ _______ _____ _____    ______ ____

>  <TORSDO>
F 7

>  <SCORE>
-6.940

>  <RMSD_LB>
0.000

>  <RMSD_UB>
0.000

$$$$
CHEMBL3454560
 OpenBabel10162523403D

 23 24  0  0  0  0  0  0  0  0999 V2000
  135.4180  135.6190  153.9220 N   0  0  0  0  0  0  0  0  0  0  0  0
  134.0830  135.3080  153.7460 C   0  0  0  0  0  0  0  0  0  0  0  0
  133.2920  135.1320  154.6760 O   0  0  0  0  0  0  0  0  0  0  0  0
  135.9720  135.8100  153.1310 H   0  0  0  0  0  0  0  0  0  0  0  0
  136.0250  135.6700  155.2310 C   0  0  0  0  0  2  0  0  0  0  0  0
  138.8100  138.1190  154.2370 C   0  0  0  0  0  0  0  0  0  0  0  0
  137.6520  137.3320  154.1810 C   0  0  0  0  0  3  0  0  0  0  0  0
  137.2510  136.5510  155.2800 C   0  0  0  0  0  0  0  0  0  0  0  0
  138.0340  136.5760  156.4450 C   0  0  0  0  0  3  0  0  0  0  0  0
  139.1940  137.3490  156.5110 C   0  0  0  0  0  3  0  0  0  0  0  0
  139.5760  138.1160  155.4100 C   0  0  0  0  0  0  0  0  0  0  0  0
  139.0790  138.4320  151.8890 C   0  0  0  0  0  1  0  0  0  0  0  0
  139.2700  138.9090  153.2120 O   0  0  0  0  0  0  0  0  0  0  0  0
  140.7170  138.8760  155.4790 O   0  0  0  0  0  0  0  0  0  0  0  0
  140.7050  139.6970  155.9290 H   0  0  0  0  0  0  0  0  0  0  0  0
  133.6450  135.2920  152.2790 C   0  0  0  0  0  2  0  0  0  0  0  0
  133.6080  133.9770  151.7320 O   0  0  0  0  0  0  0  0  0  0  0  0
  133.1250  133.9130  150.3770 C   0  0  0  0  0  3  0  0  0  0  0  0
  134.0100  132.8900  149.6530 C   0  0  0  0  0  2  0  0  0  0  0  0
  133.7530  132.8280  148.1510 C   0  0  0  0  0  2  0  0  0  0  0  0
  133.8600  134.2070  147.5080 C   0  0  0  0  0  2  0  0  0  0  0  0
  132.9210  135.1960  148.1830 C   0  0  0  0  0  2  0  0  0  0  0  0
  133.1940  135.2800  149.6800 C   0  0  0  0  0  2  0  0  0  0  0  0
  1  5  1  0  0  0  0
  2  1  1  0  0  0  0
  2  3  2  0  0  0  0
  4  1  1  0  0  0  0
  5  8  1  0  0  0  0
  6 11  1  0  0  0  0
  7  6  2  0  0  0  0
  7  8  1  0  0  0  0
  8  9  2  0  0  0  0
  9 10  1  0  0  0  0
 11 14  1  0  0  0  0
 11 10  2  0  0  0  0
 12 13  1  0  0  0  0
 13  6  1  0  0  0  0
 14 15  1  0  0  0  0
 16  2  1  0  0  0  0
 17 16  1  0  0  0  0
 18 17  1  0  0  0  0
 19 18  1  0  0  0  0
 20 19  1  0  0  0  0
 21 20  1  0  0  0  0
 21 22  1  0  0  0  0
 22 23  1  0  0  0  0
 23 18  1  0  0  0  0
M  END
>  <MODEL>
2

>  <REMARK>
 VINA RESULT:    -6.717      2.416      8.358
 INTER + INTRA:          -9.683
 INTER:                  -9.261
 INTRA:                  -0.422
 UNBOUND:                -0.413
  Name = CHEMBL3454560
  8 active torsions:
  status: ('A' for Active; 'I' for Inactive)
    1  A    between atoms: C_1  and  O_2
    2  A    between atoms: O_2  and  C_3
    3  A    between atoms: C_5  and  C_6
    4  A    between atoms: C_6  and  N_7
    5  A    between atoms: C_8  and  C_10
    6  A    between atoms: C_10  and  O_11
    7  A    between atoms: O_11  and  C_12
    8  A    between atoms: C_20  and  O_21
                            x       y       z     vdW  Elec       q    Type
                         _______ _______ _______ _____ _____    ______ ____

>  <TORSDO>
F 7

>  <SCORE>
-6.717

>  <RMSD_LB>
2.416

>  <RMSD_UB>
8.358

$$$$
CHEMBL3454560
 OpenBabel10162523403D

 23 24  0  0  0  0  0  0  0  0999 V2000
  142.5200  139.6440  151.7640 N   0  0  0  0  0  0  0  0  0  0  0  0
  143.7300  139.6520  151.0960 C   0  0  0  0  0  0  0  0  0  0  0  0
  144.1490  138.7030  150.4280 O   0  0  0  0  0  0  0  0  0  0  0  0
  142.2220  140.4630  152.2230 H   0  0  0  0  0  0  0  0  0  0  0  0
  141.6800  138.4710  151.8110 C   0  0  0  0  0  2  0  0  0  0  0  0
  138.8320  138.1300  154.3640 C   0  0  0  0  0  0  0  0  0  0  0  0
  139.5200  138.2210  153.1460 C   0  0  0  0  0  3  0  0  0  0  0  0
  140.9220  138.3380  153.1110 C   0  0  0  0  0  0  0  0  0  0  0  0
  141.6260  138.3590  154.3250 C   0  0  0  0  0  3  0  0  0  0  0  0
  140.9530  138.2780  155.5440 C   0  0  0  0  0  3  0  0  0  0  0  0
  139.5630  138.1620  155.5590 C   0  0  0  0  0  0  0  0  0  0  0  0
  136.9120  136.7190  154.3090 C   0  0  0  0  0  1  0  0  0  0  0  0
  137.4700  138.0120  154.4870 O   0  0  0  0  0  0  0  0  0  0  0  0
  138.9050  138.0810  156.7610 O   0  0  0  0  0  0  0  0  0  0  0  0
  138.1570  138.6210  156.9220 H   0  0  0  0  0  0  0  0  0  0  0  0
  144.4700  140.9890  151.1820 C   0  0  0  0  0  2  0  0  0  0  0  0
  145.8730  140.8550  150.9720 O   0  0  0  0  0  0  0  0  0  0  0  0
  146.6820  141.6710  151.8370 C   0  0  0  0  0  3  0  0  0  0  0  0
  148.1380  141.4380  151.4120 C   0  0  0  0  0  2  0  0  0  0  0  0
  149.1510  142.0910  152.3470 C   0  0  0  0  0  2  0  0  0  0  0  0
  148.9240  141.6730  153.7970 C   0  0  0  0  0  2  0  0  0  0  0  0
  147.4990  141.9800  154.2340 C   0  0  0  0  0  2  0  0  0  0  0  0
  146.4850  141.3060  153.3170 C   0  0  0  0  0  2  0  0  0  0  0  0
  1  5  1  0  0  0  0
  1  4  1  0  0  0  0
  2 16  1  0  0  0  0
  2  1  1  0  0  0  0
  3  2  2  0  0  0  0
  5  8  1  0  0  0  0
  6 13  1  0  0  0  0
  6 11  1  0  0  0  0
  7  6  2  0  0  0  0
  8  7  1  0  0  0  0
  8  9  2  0  0  0  0
  9 10  1  0  0  0  0
 10 11  2  0  0  0  0
 11 14  1  0  0  0  0
 12 13  1  0  0  0  0
 14 15  1  0  0  0  0
 17 16  1  0  0  0  0
 17 18  1  0  0  0  0
 18 23  1  0  0  0  0
 19 18  1  0  0  0  0
 19 20  1  0  0  0  0
 20 21  1  0  0  0  0
 21 22  1  0  0  0  0
 23 22  1  0  0  0  0
M  END
>  <MODEL>
3

>  <REMARK>
 VINA RESULT:    -6.583      8.758     11.216
 INTER + INTRA:          -9.498
 INTER:                  -9.114
 INTRA:                  -0.383
 UNBOUND:                -0.413
  Name = CHEMBL3454560
  8 active torsions:
  status: ('A' for Active; 'I' for Inactive)
    1  A    between atoms: C_1  and  O_2
    2  A    between atoms: O_2  and  C_3
    3  A    between atoms: C_5  and  C_6
    4  A    between atoms: C_6  and  N_7
    5  A    between atoms: C_8  and  C_10
    6  A    between atoms: C_10  and  O_11
    7  A    between atoms: O_11  and  C_12
    8  A    between atoms: C_20  and  O_21
                            x       y       z     vdW  Elec       q    Type
                         _______ _______ _______ _____ _____    ______ ____

>  <TORSDO>
F 7

>  <SCORE>
-6.583

>  <RMSD_LB>
8.758

>  <RMSD_UB>
11.216

$$$$
CHEMBL3454560
 OpenBabel10162523403D

 23 24  0  0  0  0  0  0  0  0999 V2000
  138.0490  137.9630  151.4530 N   0  0  0  0  0  0  0  0  0  0  0  0
  138.0060  137.0230  150.4410 C   0  0  0  0  0  0  0  0  0  0  0  0
  139.0030  136.6310  149.8280 O   0  0  0  0  0  0  0  0  0  0  0  0
  137.2200  138.1780  151.9410 H   0  0  0  0  0  0  0  0  0  0  0  0
  139.2710  138.6400  151.8170 C   0  0  0  0  0  2  0  0  0  0  0  0
  139.2720  137.7130  155.5430 C   0  0  0  0  0  0  0  0  0  0  0  0
  138.8260  137.9780  154.2410 C   0  0  0  0  0  3  0  0  0  0  0  0
  139.7320  138.3170  153.2190 C   0  0  0  0  0  0  0  0  0  0  0  0
  141.1000  138.3820  153.5260 C   0  0  0  0  0  3  0  0  0  0  0  0
  141.5550  138.1280  154.8200 C   0  0  0  0  0  3  0  0  0  0  0  0
  140.6420  137.7940  155.8200 C   0  0  0  0  0  0  0  0  0  0  0  0
  137.1820  137.9950  156.6540 C   0  0  0  0  0  1  0  0  0  0  0  0
  138.4570  137.3740  156.5950 O   0  0  0  0  0  0  0  0  0  0  0  0
  141.0950  137.5430  157.0920 O   0  0  0  0  0  0  0  0  0  0  0  0
  141.8100  136.9530  157.2260 H   0  0  0  0  0  0  0  0  0  0  0  0
  136.6120  136.4380  150.2050 C   0  0  0  0  0  2  0  0  0  0  0  0
  135.7980  136.4670  151.3740 O   0  0  0  0  0  0  0  0  0  0  0  0
  134.8340  135.4020  151.4530 C   0  0  0  0  0  3  0  0  0  0  0  0
  135.2770  134.3450  150.4320 C   0  0  0  0  0  2  0  0  0  0  0  0
  134.2620  133.2200  150.2520 C   0  0  0  0  0  2  0  0  0  0  0  0
  132.8760  133.7650  149.9210 C   0  0  0  0  0  2  0  0  0  0  0  0
  132.4130  134.7530  150.9810 C   0  0  0  0  0  2  0  0  0  0  0  0
  133.4120  135.8930  151.1430 C   0  0  0  0  0  2  0  0  0  0  0  0
  1  5  1  0  0  0  0
  1  4  1  0  0  0  0
  2  1  1  0  0  0  0
  3  2  2  0  0  0  0
  5  8  1  0  0  0  0
  6 11  1  0  0  0  0
  6 13  1  0  0  0  0
  7  6  2  0  0  0  0
  8  9  2  0  0  0  0
  8  7  1  0  0  0  0
  9 10  1  0  0  0  0
 10 11  2  0  0  0  0
 11 14  1  0  0  0  0
 13 12  1  0  0  0  0
 14 15  1  0  0  0  0
 16  2  1  0  0  0  0
 16 17  1  0  0  0  0
 17 18  1  0  0  0  0
 19 18  1  0  0  0  0
 20 19  1  0  0  0  0
 21 20  1  0  0  0  0
 21 22  1  0  0  0  0
 22 23  1  0  0  0  0
 23 18  1  0  0  0  0
M  END
>  <MODEL>
4

>  <REMARK>
 VINA RESULT:    -6.354      3.780      8.765
 INTER + INTRA:          -9.180
 INTER:                  -8.630
 INTRA:                  -0.551
 UNBOUND:                -0.413
  Name = CHEMBL3454560
  8 active torsions:
  status: ('A' for Active; 'I' for Inactive)
    1  A    between atoms: C_1  and  O_2
    2  A    between atoms: O_2  and  C_3
    3  A    between atoms: C_5  and  C_6
    4  A    between atoms: C_6  and  N_7
    5  A    between atoms: C_8  and  C_10
    6  A    between atoms: C_10  and  O_11
    7  A    between atoms: O_11  and  C_12
    8  A    between atoms: C_20  and  O_21
                            x       y       z     vdW  Elec       q    Type
                         _______ _______ _______ _____ _____    ______ ____

>  <TORSDO>
F 7

>  <SCORE>
-6.354

>  <RMSD_LB>
3.780

>  <RMSD_UB>
8.765

$$$$
CHEMBL3454560
 OpenBabel10162523403D

 23 24  0  0  0  0  0  0  0  0999 V2000
  134.9900  134.6360  146.7870 N   0  0  0  0  0  0  0  0  0  0  0  0
  135.0170  133.2570  146.8790 C   0  0  0  0  0  0  0  0  0  0  0  0
  134.0870  132.5820  147.3290 O   0  0  0  0  0  0  0  0  0  0  0  0
  135.7440  135.1010  146.3570 H   0  0  0  0  0  0  0  0  0  0  0  0
  133.8910  135.4150  147.3050 C   0  0  0  0  0  2  0  0  0  0  0  0
  135.3260  135.9070  150.8330 C   0  0  0  0  0  0  0  0  0  0  0  0
  135.2450  135.6820  149.4510 C   0  0  0  0  0  3  0  0  0  0  0  0
  134.0050  135.6880  148.7860 C   0  0  0  0  0  0  0  0  0  0  0  0
  132.8410  135.9290  149.5340 C   0  0  0  0  0  3  0  0  0  0  0  0
  132.9070  136.1460  150.9110 C   0  0  0  0  0  3  0  0  0  0  0  0
  134.1460  136.1350  151.5520 C   0  0  0  0  0  0  0  0  0  0  0  0
  137.3740  137.0120  151.3500 C   0  0  0  0  0  1  0  0  0  0  0  0
  136.4920  135.9190  151.5560 O   0  0  0  0  0  0  0  0  0  0  0  0
  134.2070  136.3510  152.9070 O   0  0  0  0  0  0  0  0  0  0  0  0
  133.6760  137.0150  153.2990 H   0  0  0  0  0  0  0  0  0  0  0  0
  136.2790  132.6270  146.2840 C   0  0  0  0  0  2  0  0  0  0  0  0
  136.0790  132.1440  144.9580 O   0  0  0  0  0  0  0  0  0  0  0  0
  136.9380  132.7460  143.9730 C   0  0  0  0  0  3  0  0  0  0  0  0
  136.1750  133.9560  143.4170 C   0  0  0  0  0  2  0  0  0  0  0  0
  136.8690  134.6090  142.2260 C   0  0  0  0  0  2  0  0  0  0  0  0
  137.1710  133.5930  141.1290 C   0  0  0  0  0  2  0  0  0  0  0  0
  137.9950  132.4350  141.6730 C   0  0  0  0  0  2  0  0  0  0  0  0
  137.2910  131.7630  142.8450 C   0  0  0  0  0  2  0  0  0  0  0  0
  1  2  1  0  0  0  0
  1  5  1  0  0  0  0
  2  3  2  0  0  0  0
  4  1  1  0  0  0  0
  5  8  1  0  0  0  0
  6 11  1  0  0  0  0
  6 13  1  0  0  0  0
  7  6  2  0  0  0  0
  8  7  1  0  0  0  0
  8  9  2  0  0  0  0
  9 10  1  0  0  0  0
 10 11  2  0  0  0  0
 11 14  1  0  0  0  0
 12 13  1  0  0  0  0
 14 15  1  0  0  0  0
 16  2  1  0  0  0  0
 17 16  1  0  0  0  0
 18 17  1  0  0  0  0
 19 18  1  0  0  0  0
 20 19  1  0  0  0  0
 21 22  1  0  0  0  0
 21 20  1  0  0  0  0
 22 23  1  0  0  0  0
 23 18  1  0  0  0  0
M  END
>  <MODEL>
5

>  <REMARK>
 VINA RESULT:    -6.195      4.179      9.959
 INTER + INTRA:          -8.962
 INTER:                  -8.495
 INTRA:                  -0.467
 UNBOUND:                -0.413
  Name = CHEMBL3454560
  8 active torsions:
  status: ('A' for Active; 'I' for Inactive)
    1  A    between atoms: C_1  and  O_2
    2  A    between atoms: O_2  and  C_3
    3  A    between atoms: C_5  and  C_6
    4  A    between atoms: C_6  and  N_7
    5  A    between atoms: C_8  and  C_10
    6  A    between atoms: C_10  and  O_11
    7  A    between atoms: O_11  and  C_12
    8  A    between atoms: C_20  and  O_21
                            x       y       z     vdW  Elec       q    Type
                         _______ _______ _______ _____ _____    ______ ____

>  <TORSDO>
F 7

>  <SCORE>
-6.195

>  <RMSD_LB>
4.179

>  <RMSD_UB>
9.959

$$$$
CHEMBL3454560
 OpenBabel10162523403D

 23 24  0  0  0  0  0  0  0  0999 V2000
  138.8020  136.6380  150.2300 N   0  0  0  0  0  0  0  0  0  0  0  0
  137.6350  137.3670  150.1090 C   0  0  0  0  0  0  0  0  0  0  0  0
  137.5920  138.5280  149.6920 O   0  0  0  0  0  0  0  0  0  0  0  0
  138.7500  135.6950  150.5080 H   0  0  0  0  0  0  0  0  0  0  0  0
  140.0970  137.2170  149.9620 C   0  0  0  0  0  2  0  0  0  0  0  0
  141.1690  138.0550  153.5520 C   0  0  0  0  0  0  0  0  0  0  0  0
  140.3720  137.8570  152.4160 C   0  0  0  0  0  3  0  0  0  0  0  0
  140.9310  137.4050  151.2070 C   0  0  0  0  0  0  0  0  0  0  0  0
  142.3110  137.1490  151.1580 C   0  0  0  0  0  3  0  0  0  0  0  0
  143.1160  137.3490  152.2780 C   0  0  0  0  0  3  0  0  0  0  0  0
  142.5440  137.7980  153.4680 C   0  0  0  0  0  0  0  0  0  0  0  0
  139.3230  138.3110  155.0380 C   0  0  0  0  0  1  0  0  0  0  0  0
  140.7040  138.4910  154.7680 O   0  0  0  0  0  0  0  0  0  0  0  0
  143.3400  137.9930  154.5700 O   0  0  0  0  0  0  0  0  0  0  0  0
  143.8980  137.3040  154.8720 H   0  0  0  0  0  0  0  0  0  0  0  0
  136.3740  136.5710  150.4550 C   0  0  0  0  0  2  0  0  0  0  0  0
  135.4210  136.5640  149.3970 O   0  0  0  0  0  0  0  0  0  0  0  0
  134.4160  135.5400  149.5110 C   0  0  0  0  0  3  0  0  0  0  0  0
  135.1150  134.3170  150.1190 C   0  0  0  0  0  2  0  0  0  0  0  0
  134.2340  133.0710  150.1450 C   0  0  0  0  0  2  0  0  0  0  0  0
  133.6710  132.7570  148.7620 C   0  0  0  0  0  2  0  0  0  0  0  0
  132.9120  133.9500  148.2010 C   0  0  0  0  0  2  0  0  0  0  0  0
  133.7980  135.1900  148.1490 C   0  0  0  0  0  2  0  0  0  0  0  0
  1  4  1  0  0  0  0
  2  1  1  0  0  0  0
  2 16  1  0  0  0  0
  3  2  2  0  0  0  0
  5  1  1  0  0  0  0
  5  8  1  0  0  0  0
  6 13  1  0  0  0  0
  7  6  2  0  0  0  0
  8  7  1  0  0  0  0
  9  8  2  0  0  0  0
  9 10  1  0  0  0  0
 10 11  2  0  0  0  0
 11  6  1  0  0  0  0
 11 14  1  0  0  0  0
 13 12  1  0  0  0  0
 14 15  1  0  0  0  0
 17 18  1  0  0  0  0
 17 16  1  0  0  0  0
 18 19  1  0  0  0  0
 19 20  1  0  0  0  0
 21 20  1  0  0  0  0
 22 21  1  0  0  0  0
 23 22  1  0  0  0  0
 23 18  1  0  0  0  0
M  END
>  <MODEL>
6

>  <REMARK>
 VINA RESULT:    -6.145      4.869      9.198
 INTER + INTRA:          -8.893
 INTER:                  -8.463
 INTRA:                  -0.430
 UNBOUND:                -0.413
  Name = CHEMBL3454560
  8 active torsions:
  status: ('A' for Active; 'I' for Inactive)
    1  A    between atoms: C_1  and  O_2
    2  A    between atoms: O_2  and  C_3
    3  A    between atoms: C_5  and  C_6
    4  A    between atoms: C_6  and  N_7
    5  A    between atoms: C_8  and  C_10
    6  A    between atoms: C_10  and  O_11
    7  A    between atoms: O_11  and  C_12
    8  A    between atoms: C_20  and  O_21
                            x       y       z     vdW  Elec       q    Type
                         _______ _______ _______ _____ _____    ______ ____

>  <TORSDO>
F 7

>  <SCORE>
-6.145

>  <RMSD_LB>
4.869

>  <RMSD_UB>
9.198

$$$$
CHEMBL3454560
 OpenBabel10162523403D

 23 24  0  0  0  0  0  0  0  0999 V2000
  145.4580  137.7690  150.6200 N   0  0  0  0  0  0  0  0  0  0  0  0
  144.4680  138.7330  150.6320 C   0  0  0  0  0  0  0  0  0  0  0  0
  144.6870  139.9370  150.7920 O   0  0  0  0  0  0  0  0  0  0  0  0
  145.2140  136.8360  150.4220 H   0  0  0  0  0  0  0  0  0  0  0  0
  146.8400  138.0880  150.8910 C   0  0  0  0  0  2  0  0  0  0  0  0
  148.1390  139.5040  154.2150 C   0  0  0  0  0  0  0  0  0  0  0  0
  147.8560  139.3710  152.8490 C   0  0  0  0  0  3  0  0  0  0  0  0
  147.1280  138.2690  152.3630 C   0  0  0  0  0  0  0  0  0  0  0  0
  146.6830  137.3000  153.2760 C   0  0  0  0  0  3  0  0  0  0  0  0
  146.9660  137.4160  154.6370 C   0  0  0  0  0  3  0  0  0  0  0  0
  147.6890  138.5150  155.1000 C   0  0  0  0  0  0  0  0  0  0  0  0
  148.6260  141.8370  154.2240 C   0  0  0  0  0  1  0  0  0  0  0  0
  148.8400  140.5450  154.7710 O   0  0  0  0  0  0  0  0  0  0  0  0
  147.9640  138.6270  156.4410 O   0  0  0  0  0  0  0  0  0  0  0  0
  147.5050  139.2560  156.9610 H   0  0  0  0  0  0  0  0  0  0  0  0
  143.0710  138.1820  150.3360 C   0  0  0  0  0  2  0  0  0  0  0  0
  142.5500  137.4010  151.4080 O   0  0  0  0  0  0  0  0  0  0  0  0
  141.7900  138.1510  152.3730 C   0  0  0  0  0  3  0  0  0  0  0  0
  142.4520  137.8980  153.7340 C   0  0  0  0  0  2  0  0  0  0  0  0
  141.6630  138.4760  154.9040 C   0  0  0  0  0  2  0  0  0  0  0  0
  140.2150  137.9960  154.8940 C   0  0  0  0  0  2  0  0  0  0  0  0
  139.5440  138.3220  153.5680 C   0  0  0  0  0  2  0  0  0  0  0  0
  140.3150  137.7220  152.3980 C   0  0  0  0  0  2  0  0  0  0  0  0
  1  2  1  0  0  0  0
  1  5  1  0  0  0  0
  2  3  2  0  0  0  0
  4  1  1  0  0  0  0
  5  8  1  0  0  0  0
  6 13  1  0  0  0  0
  6 11  1  0  0  0  0
  7  6  2  0  0  0  0
  8  7  1  0  0  0  0
  8  9  2  0  0  0  0
  9 10  1  0  0  0  0
 10 11  2  0  0  0  0
 11 14  1  0  0  0  0
 12 13  1  0  0  0  0
 14 15  1  0  0  0  0
 16  2  1  0  0  0  0
 16 17  1  0  0  0  0
 17 18  1  0  0  0  0
 18 23  1  0  0  0  0
 18 19  1  0  0  0  0
 19 20  1  0  0  0  0
 21 20  1  0  0  0  0
 22 21  1  0  0  0  0
 23 22  1  0  0  0  0
M  END
>  <MODEL>
7

>  <REMARK>
 VINA RESULT:    -6.049      9.745     12.801
 INTER + INTRA:          -8.761
 INTER:                  -8.050
 INTRA:                  -0.711
 UNBOUND:                -0.413
  Name = CHEMBL3454560
  8 active torsions:
  status: ('A' for Active; 'I' for Inactive)
    1  A    between atoms: C_1  and  O_2
    2  A    between atoms: O_2  and  C_3
    3  A    between atoms: C_5  and  C_6
    4  A    between atoms: C_6  and  N_7
    5  A    between atoms: C_8  and  C_10
    6  A    between atoms: C_10  and  O_11
    7  A    between atoms: O_11  and  C_12
    8  A    between atoms: C_20  and  O_21
                            x       y       z     vdW  Elec       q    Type
                         _______ _______ _______ _____ _____    ______ ____

>  <TORSDO>
F 7

>  <SCORE>
-6.049

>  <RMSD_LB>
9.745

>  <RMSD_UB>
12.801

$$$$
CHEMBL3454560
 OpenBabel10162523403D

 23 24  0  0  0  0  0  0  0  0999 V2000
  141.4480  139.2090  152.8120 N   0  0  0  0  0  0  0  0  0  0  0  0
  142.6890  138.6460  152.5790 C   0  0  0  0  0  0  0  0  0  0  0  0
  142.8520  137.5020  152.1470 O   0  0  0  0  0  0  0  0  0  0  0  0
  141.3960  140.1500  153.0950 H   0  0  0  0  0  0  0  0  0  0  0  0
  140.2250  138.4570  152.6520 C   0  0  0  0  0  2  0  0  0  0  0  0
  137.5410  137.7270  155.2990 C   0  0  0  0  0  0  0  0  0  0  0  0
  138.1530  137.9870  154.0650 C   0  0  0  0  0  3  0  0  0  0  0  0
  139.5480  138.1430  153.9650 C   0  0  0  0  0  0  0  0  0  0  0  0
  140.3230  138.0310  155.1310 C   0  0  0  0  0  3  0  0  0  0  0  0
  139.7260  137.7800  156.3660 C   0  0  0  0  0  3  0  0  0  0  0  0
  138.3410  137.6280  156.4450 C   0  0  0  0  0  0  0  0  0  0  0  0
  135.6350  136.3090  155.1070 C   0  0  0  0  0  1  0  0  0  0  0  0
  136.1910  137.5600  155.4830 O   0  0  0  0  0  0  0  0  0  0  0  0
  137.7570  137.3810  157.6620 O   0  0  0  0  0  0  0  0  0  0  0  0
  136.8670  137.0920  157.7040 H   0  0  0  0  0  0  0  0  0  0  0  0
  143.8540  139.6080  152.8220 C   0  0  0  0  0  2  0  0  0  0  0  0
  145.0300  139.2370  152.1080 O   0  0  0  0  0  0  0  0  0  0  0  0
  146.2020  139.0970  152.9310 C   0  0  0  0  0  3  0  0  0  0  0  0
  146.8020  137.7250  152.5960 C   0  0  0  0  0  2  0  0  0  0  0  0
  147.9560  137.3320  153.5120 C   0  0  0  0  0  2  0  0  0  0  0  0
  147.5580  137.4180  154.9820 C   0  0  0  0  0  2  0  0  0  0  0  0
  147.0380  138.8070  155.3230 C   0  0  0  0  0  2  0  0  0  0  0  0
  145.8660  139.1910  154.4270 C   0  0  0  0  0  2  0  0  0  0  0  0
  1  4  1  0  0  0  0
  2  1  1  0  0  0  0
  2 16  1  0  0  0  0
  3  2  2  0  0  0  0
  5  1  1  0  0  0  0
  5  8  1  0  0  0  0
  6 13  1  0  0  0  0
  6 11  1  0  0  0  0
  7  6  2  0  0  0  0
  8  7  1  0  0  0  0
  8  9  2  0  0  0  0
  9 10  1  0  0  0  0
 10 11  2  0  0  0  0
 11 14  1  0  0  0  0
 12 13  1  0  0  0  0
 14 15  1  0  0  0  0
 17 16  1  0  0  0  0
 17 18  1  0  0  0  0
 18 23  1  0  0  0  0
 19 18  1  0  0  0  0
 19 20  1  0  0  0  0
 20 21  1  0  0  0  0
 21 22  1  0  0  0  0
 23 22  1  0  0  0  0
M  END
>  <MODEL>
8

>  <REMARK>
 VINA RESULT:    -6.012      7.236      9.977
 INTER + INTRA:          -8.709
 INTER:                  -8.224
 INTRA:                  -0.485
 UNBOUND:                -0.413
  Name = CHEMBL3454560
  8 active torsions:
  status: ('A' for Active; 'I' for Inactive)
    1  A    between atoms: C_1  and  O_2
    2  A    between atoms: O_2  and  C_3
    3  A    between atoms: C_5  and  C_6
    4  A    between atoms: C_6  and  N_7
    5  A    between atoms: C_8  and  C_10
    6  A    between atoms: C_10  and  O_11
    7  A    between atoms: O_11  and  C_12
    8  A    between atoms: C_20  and  O_21
                            x       y       z     vdW  Elec       q    Type
                         _______ _______ _______ _____ _____    ______ ____

>  <TORSDO>
F 7

>  <SCORE>
-6.012

>  <RMSD_LB>
7.236

>  <RMSD_UB>
9.977

$$$$
CHEMBL3454560
 OpenBabel10162523403D

 23 24  0  0  0  0  0  0  0  0999 V2000
  142.0940  138.1890  151.8870 N   0  0  0  0  0  0  0  0  0  0  0  0
  143.0760  139.1040  151.5610 C   0  0  0  0  0  0  0  0  0  0  0  0
  142.9110  140.0330  150.7660 O   0  0  0  0  0  0  0  0  0  0  0  0
  142.2800  137.5140  152.5800 H   0  0  0  0  0  0  0  0  0  0  0  0
  140.8020  138.1920  151.2430 C   0  0  0  0  0  2  0  0  0  0  0  0
  137.3800  137.1630  152.6500 C   0  0  0  0  0  0  0  0  0  0  0  0
  138.4340  137.3880  151.7540 C   0  0  0  0  0  3  0  0  0  0  0  0
  139.6650  137.9090  152.1960 C   0  0  0  0  0  0  0  0  0  0  0  0
  139.8220  138.1970  153.5610 C   0  0  0  0  0  3  0  0  0  0  0  0
  138.7780  137.9840  154.4620 C   0  0  0  0  0  3  0  0  0  0  0  0
  137.5660  137.4680  154.0050 C   0  0  0  0  0  0  0  0  0  0  0  0
  136.1020  135.3010  151.8870 C   0  0  0  0  0  1  0  0  0  0  0  0
  136.1520  136.6580  152.3030 O   0  0  0  0  0  0  0  0  0  0  0  0
  136.5420  137.2590  154.8950 O   0  0  0  0  0  0  0  0  0  0  0  0
  136.7130  137.2660  155.8160 H   0  0  0  0  0  0  0  0  0  0  0  0
  144.3760  138.9170  152.3490 C   0  0  0  0  0  2  0  0  0  0  0  0
  144.6570  140.0140  153.2130 O   0  0  0  0  0  0  0  0  0  0  0  0
  146.0420  140.1390  153.5810 C   0  0  0  0  0  3  0  0  0  0  0  0
  146.2950  141.6350  153.8090 C   0  0  0  0  0  2  0  0  0  0  0  0
  147.7670  141.9690  154.0310 C   0  0  0  0  0  2  0  0  0  0  0  0
  148.6410  141.4250  152.9060 C   0  0  0  0  0  2  0  0  0  0  0  0
  148.4410  139.9250  152.7400 C   0  0  0  0  0  2  0  0  0  0  0  0
  146.9750  139.5900  152.4900 C   0  0  0  0  0  2  0  0  0  0  0  0
  1  4  1  0  0  0  0
  2  1  1  0  0  0  0
  2 16  1  0  0  0  0
  3  2  2  0  0  0  0
  5  1  1  0  0  0  0
  5  8  1  0  0  0  0
  6 11  1  0  0  0  0
  7  8  1  0  0  0  0
  7  6  2  0  0  0  0
  8  9  2  0  0  0  0
  9 10  1  0  0  0  0
 11 10  2  0  0  0  0
 11 14  1  0  0  0  0
 12 13  1  0  0  0  0
 13  6  1  0  0  0  0
 14 15  1  0  0  0  0
 16 17  1  0  0  0  0
 17 18  1  0  0  0  0
 18 19  1  0  0  0  0
 19 20  1  0  0  0  0
 21 20  1  0  0  0  0
 22 21  1  0  0  0  0
 23 22  1  0  0  0  0
 23 18  1  0  0  0  0
M  END
>  <MODEL>
9

>  <REMARK>
 VINA RESULT:    -5.850      7.946      9.837
 INTER + INTRA:          -8.486
 INTER:                  -8.073
 INTRA:                  -0.413
 UNBOUND:                -0.413
  Name = CHEMBL3454560
  8 active torsions:
  status: ('A' for Active; 'I' for Inactive)
    1  A    between atoms: C_1  and  O_2
    2  A    between atoms: O_2  and  C_3
    3  A    between atoms: C_5  and  C_6
    4  A    between atoms: C_6  and  N_7
    5  A    between atoms: C_8  and  C_10
    6  A    between atoms: C_10  and  O_11
    7  A    between atoms: O_11  and  C_12
    8  A    between atoms: C_20  and  O_21
                            x       y       z     vdW  Elec       q    Type
                         _______ _______ _______ _____ _____    ______ ____

>  <TORSDO>
F 7

>  <SCORE>
-5.850

>  <RMSD_LB>
7.946

>  <RMSD_UB>
9.837

$$$$
