CHEMBL4516048
 OpenBabel10172500023D

 36 38  0  0  0  0  0  0  0  0999 V2000
  140.9910  137.8180  151.4890 C   0  0  0  0  0  2  0  0  0  0  0  0
  142.1830  137.1760  150.7700 C   0  0  0  0  0  2  0  0  0  0  0  0
  143.4610  137.2440  151.6050 C   0  0  0  0  0  2  0  0  0  0  0  0
  145.6650  138.0500  150.9890 N   0  0  0  0  0  0  0  0  0  0  0  0
  144.3440  138.3880  151.1580 C   0  0  0  0  0  0  0  0  0  0  0  0
  143.9090  139.5270  151.0250 O   0  0  0  0  0  0  0  0  0  0  0  0
  145.9400  137.1150  151.1240 H   0  0  0  0  0  0  0  0  0  0  0  0
  146.6610  139.0310  150.6150 C   0  0  0  0  0  2  0  0  0  0  0  0
  147.9860  139.7060  154.1500 C   0  0  0  0  0  0  0  0  0  0  0  0
  147.4130  139.0650  153.0390 C   0  0  0  0  0  3  0  0  0  0  0  0
  147.3060  139.7140  151.7990 C   0  0  0  0  0  0  0  0  0  0  0  0
  147.7900  141.0240  151.6850 C   0  0  0  0  0  3  0  0  0  0  0  0
  148.3540  141.6780  152.7850 C   0  0  0  0  0  3  0  0  0  0  0  0
  148.4490  141.0190  154.0080 C   0  0  0  0  0  0  0  0  0  0  0  0
  148.1710  137.7150  155.4390 C   0  0  0  0  0  1  0  0  0  0  0  0
  148.1250  139.1340  155.3890 O   0  0  0  0  0  0  0  0  0  0  0  0
  149.0010  141.6570  155.0890 O   0  0  0  0  0  0  0  0  0  0  0  0
  149.1210  142.5860  155.0740 H   0  0  0  0  0  0  0  0  0  0  0  0
  139.6430  137.3630  150.9160 C   0  0  0  0  0  2  0  0  0  0  0  0
  138.4500  138.0320  151.6070 C   0  0  0  0  0  2  0  0  0  0  0  0
  137.6450  137.0330  152.4380 C   0  0  0  0  0  2  0  0  0  0  0  0
  136.5490  136.4690  151.6880 N   0  0  0  0  0  0  0  0  0  0  0  0
  135.6270  135.6360  152.2810 C   0  0  0  0  0  0  0  0  0  0  0  0
  135.6720  135.3240  153.4710 O   0  0  0  0  0  0  0  0  0  0  0  0
  136.4590  136.6830  150.7310 H   0  0  0  0  0  0  0  0  0  0  0  0
  134.5760  135.1610  151.3830 C   0  0  0  0  0  0  0  0  0  0  0  0
  133.2540  134.9860  151.7800 N   0  0  0  0  0  0  0  0  0  0  0  0
  132.6430  134.5310  150.7050 C   0  0  0  0  0  3  0  0  0  0  0  0
  133.4940  134.4090  149.6410 N   0  0  0  0  0  0  0  0  0  0  0  0
  133.2250  133.9390  148.3680 C   0  0  0  0  0  0  0  0  0  0  0  0
  132.0940  133.5770  148.0820 O   0  0  0  0  0  0  0  0  0  0  0  0
  134.3650  133.9490  147.5850 N   0  0  0  0  0  0  0  0  0  0  0  0
  134.3020  133.5040  146.2060 C   0  0  0  0  0  1  0  0  0  0  0  0
  135.6050  134.3710  148.0100 N   0  0  0  0  0  0  0  0  0  0  0  0
  135.7650  134.7800  149.1860 N   0  0  0  0  0  0  0  0  0  0  0  0
  134.7310  134.8140  150.0520 C   0  0  0  0  0  0  0  0  0  0  0  0
  2  1  1  0  0  0  0
  2  3  1  0  0  0  0
  4  7  1  0  0  0  0
  4  5  1  0  0  0  0
  5  3  1  0  0  0  0
  6  5  2  0  0  0  0
  8  4  1  0  0  0  0
  8 11  1  0  0  0  0
  9 16  1  0  0  0  0
 10  9  2  0  0  0  0
 11 10  1  0  0  0  0
 12 11  2  0  0  0  0
 12 13  1  0  0  0  0
 13 14  2  0  0  0  0
 14  9  1  0  0  0  0
 14 17  1  0  0  0  0
 16 15  1  0  0  0  0
 18 17  1  0  0  0  0
 19  1  1  0  0  0  0
 19 20  1  0  0  0  0
 20 21  1  0  0  0  0
 22 23  1  0  0  0  0
 22 21  1  0  0  0  0
 23 24  2  0  0  0  0
 25 22  1  0  0  0  0
 26 27  1  0  0  0  0
 26 23  1  0  0  0  0
 28 27  2  0  0  0  0
 29 36  1  0  0  0  0
 29 28  1  0  0  0  0
 30 29  1  0  0  0  0
 31 30  2  0  0  0  0
 32 34  1  0  0  0  0
 32 30  1  0  0  0  0
 33 32  1  0  0  0  0
 34 35  2  0  0  0  0
 35 36  1  0  0  0  0
 36 26  2  0  0  0  0
M  END
>  <MODEL>
1

>  <REMARK>
 VINA RESULT:    -7.098      0.000      0.000
 INTER + INTRA:         -13.571
 INTER:                 -12.661
 INTRA:                  -0.909
 UNBOUND:                -1.701
  Name = CHEMBL4516048
  14 active torsions:
  status: ('A' for Active; 'I' for Inactive)
    1  A    between atoms: C_1  and  O_2
    2  A    between atoms: O_2  and  C_3
    3  A    between atoms: C_5  and  C_6
    4  A    between atoms: C_6  and  N_7
    5  A    between atoms: C_8  and  C_10
    6  A    between atoms: C_10  and  C_11
    7  A    between atoms: C_11  and  C_12
    8  A    between atoms: C_12  and  C_13
    9  A    between atoms: C_13  and  C_14
   10  A    between atoms: C_14  and  C_15
   11  A    between atoms: C_15  and  N_16
   12  A    between atoms: C_17  and  C_19
   13  A    between atoms: N_25  and  C_26
   14  A    between atoms: C_32  and  O_33
                            x       y       z     vdW  Elec       q    Type
                         _______ _______ _______ _____ _____    ______ ____

>  <TORSDO>
F 12

>  <SCORE>
-7.098

>  <RMSD_LB>
0.000

>  <RMSD_UB>
0.000

$$$$
CHEMBL4516048
 OpenBabel10172500023D

 36 38  0  0  0  0  0  0  0  0999 V2000
  140.3880  137.2800  149.2730 C   0  0  0  0  0  2  0  0  0  0  0  0
  139.0500  136.6760  149.7130 C   0  0  0  0  0  2  0  0  0  0  0  0
  138.4040  137.4750  150.8450 C   0  0  0  0  0  2  0  0  0  0  0  0
  136.9040  135.5690  150.8350 N   0  0  0  0  0  0  0  0  0  0  0  0
  137.3350  136.6640  151.5420 C   0  0  0  0  0  0  0  0  0  0  0  0
  136.8640  137.0080  152.6210 O   0  0  0  0  0  0  0  0  0  0  0  0
  137.3260  135.3630  149.9700 H   0  0  0  0  0  0  0  0  0  0  0  0
  135.8490  134.7100  151.3270 C   0  0  0  0  0  2  0  0  0  0  0  0
  134.0400  134.4060  147.9590 C   0  0  0  0  0  0  0  0  0  0  0  0
  135.0160  134.6850  148.9290 C   0  0  0  0  0  3  0  0  0  0  0  0
  134.8070  134.3780  150.2820 C   0  0  0  0  0  0  0  0  0  0  0  0
  133.5970  133.7760  150.6540 C   0  0  0  0  0  3  0  0  0  0  0  0
  132.6120  133.5000  149.7010 C   0  0  0  0  0  3  0  0  0  0  0  0
  132.8360  133.8150  148.3620 C   0  0  0  0  0  0  0  0  0  0  0  0
  134.1490  136.0420  146.2360 C   0  0  0  0  0  1  0  0  0  0  0  0
  134.1750  134.6750  146.6210 O   0  0  0  0  0  0  0  0  0  0  0  0
  131.8720  133.5460  147.4250 O   0  0  0  0  0  0  0  0  0  0  0  0
  131.4650  134.2480  146.9560 H   0  0  0  0  0  0  0  0  0  0  0  0
  141.5120  136.2390  149.2070 C   0  0  0  0  0  2  0  0  0  0  0  0
  142.7260  136.6240  150.0600 C   0  0  0  0  0  2  0  0  0  0  0  0
  142.3300  137.5170  151.2360 C   0  0  0  0  0  2  0  0  0  0  0  0
  143.4760  138.1620  151.8300 N   0  0  0  0  0  0  0  0  0  0  0  0
  143.7660  139.4840  151.5750 C   0  0  0  0  0  0  0  0  0  0  0  0
  143.0790  140.1920  150.8400 O   0  0  0  0  0  0  0  0  0  0  0  0
  144.0630  137.6480  152.4290 H   0  0  0  0  0  0  0  0  0  0  0  0
  144.9540  139.9860  152.2640 C   0  0  0  0  0  0  0  0  0  0  0  0
  145.5800  141.1840  151.9350 N   0  0  0  0  0  0  0  0  0  0  0  0
  146.6050  141.2590  152.7570 C   0  0  0  0  0  3  0  0  0  0  0  0
  146.6720  140.1820  153.5990 N   0  0  0  0  0  0  0  0  0  0  0  0
  147.6190  139.8990  154.5670 C   0  0  0  0  0  0  0  0  0  0  0  0
  148.5410  140.6770  154.7590 O   0  0  0  0  0  0  0  0  0  0  0  0
  147.3460  138.6940  155.1880 N   0  0  0  0  0  0  0  0  0  0  0  0
  148.2120  138.2110  156.2460 C   0  0  0  0  0  1  0  0  0  0  0  0
  146.2750  137.8810  154.8890 N   0  0  0  0  0  0  0  0  0  0  0  0
  145.4620  138.2110  153.9900 N   0  0  0  0  0  0  0  0  0  0  0  0
  145.6220  139.3630  153.3050 C   0  0  0  0  0  0  0  0  0  0  0  0
  1  2  1  0  0  0  0
  2  3  1  0  0  0  0
  3  5  1  0  0  0  0
  4  8  1  0  0  0  0
  4  5  1  0  0  0  0
  5  6  2  0  0  0  0
  7  4  1  0  0  0  0
  9 14  2  0  0  0  0
  9 10  1  0  0  0  0
 10 11  2  0  0  0  0
 11 12  1  0  0  0  0
 11  8  1  0  0  0  0
 13 12  2  0  0  0  0
 14 13  1  0  0  0  0
 15 16  1  0  0  0  0
 16  9  1  0  0  0  0
 17 14  1  0  0  0  0
 18 17  1  0  0  0  0
 19  1  1  0  0  0  0
 19 20  1  0  0  0  0
 20 21  1  0  0  0  0
 21 22  1  0  0  0  0
 22 25  1  0  0  0  0
 23 22  1  0  0  0  0
 23 26  1  0  0  0  0
 24 23  2  0  0  0  0
 26 36  2  0  0  0  0
 27 26  1  0  0  0  0
 27 28  2  0  0  0  0
 28 29  1  0  0  0  0
 29 30  1  0  0  0  0
 30 31  2  0  0  0  0
 30 32  1  0  0  0  0
 32 33  1  0  0  0  0
 34 32  1  0  0  0  0
 35 34  2  0  0  0  0
 36 29  1  0  0  0  0
 36 35  1  0  0  0  0
M  END
>  <MODEL>
2

>  <REMARK>
 VINA RESULT:    -6.860      1.999     13.068
 INTER + INTRA:         -13.172
 INTER:                 -12.007
 INTRA:                  -1.165
 UNBOUND:                -1.701
  Name = CHEMBL4516048
  14 active torsions:
  status: ('A' for Active; 'I' for Inactive)
    1  A    between atoms: C_1  and  O_2
    2  A    between atoms: O_2  and  C_3
    3  A    between atoms: C_5  and  C_6
    4  A    between atoms: C_6  and  N_7
    5  A    between atoms: C_8  and  C_10
    6  A    between atoms: C_10  and  C_11
    7  A    between atoms: C_11  and  C_12
    8  A    between atoms: C_12  and  C_13
    9  A    between atoms: C_13  and  C_14
   10  A    between atoms: C_14  and  C_15
   11  A    between atoms: C_15  and  N_16
   12  A    between atoms: C_17  and  C_19
   13  A    between atoms: N_25  and  C_26
   14  A    between atoms: C_32  and  O_33
                            x       y       z     vdW  Elec       q    Type
                         _______ _______ _______ _____ _____    ______ ____

>  <TORSDO>
F 12

>  <SCORE>
-6.860

>  <RMSD_LB>
1.999

>  <RMSD_UB>
13.068

$$$$
CHEMBL4516048
 OpenBabel10172500023D

 36 38  0  0  0  0  0  0  0  0999 V2000
  137.1440  133.6770  147.8110 C   0  0  0  0  0  2  0  0  0  0  0  0
  136.8800  133.3600  146.3350 C   0  0  0  0  0  2  0  0  0  0  0  0
  136.3280  131.9480  146.1410 C   0  0  0  0  0  2  0  0  0  0  0  0
  137.3940  131.7400  143.9720 N   0  0  0  0  0  0  0  0  0  0  0  0
  136.2210  131.6010  144.6730 C   0  0  0  0  0  0  0  0  0  0  0  0
  135.1530  131.2840  144.1600 O   0  0  0  0  0  0  0  0  0  0  0  0
  138.2090  132.0080  144.4540 H   0  0  0  0  0  0  0  0  0  0  0  0
  137.4630  131.5030  142.5470 C   0  0  0  0  0  2  0  0  0  0  0  0
  138.7890  133.9160  139.8790 C   0  0  0  0  0  0  0  0  0  0  0  0
  138.5420  132.7470  140.6150 C   0  0  0  0  0  3  0  0  0  0  0  0
  137.7010  132.7580  141.7390 C   0  0  0  0  0  0  0  0  0  0  0  0
  137.1010  133.9680  142.1140 C   0  0  0  0  0  3  0  0  0  0  0  0
  137.3440  135.1420  141.3960 C   0  0  0  0  0  3  0  0  0  0  0  0
  138.1850  135.1120  140.2850 C   0  0  0  0  0  0  0  0  0  0  0  0
  140.9860  133.7700  138.9770 C   0  0  0  0  0  1  0  0  0  0  0  0
  139.5960  133.9800  138.7710 O   0  0  0  0  0  0  0  0  0  0  0  0
  138.4270  136.2620  139.5780 O   0  0  0  0  0  0  0  0  0  0  0  0
  138.0310  136.3890  138.7390 H   0  0  0  0  0  0  0  0  0  0  0  0
  136.4390  134.9590  148.2730 C   0  0  0  0  0  2  0  0  0  0  0  0
  135.1990  134.6770  149.1280 C   0  0  0  0  0  2  0  0  0  0  0  0
  134.7500  135.9190  149.8990 C   0  0  0  0  0  2  0  0  0  0  0  0
  135.0240  135.8040  151.3100 N   0  0  0  0  0  0  0  0  0  0  0  0
  134.0770  135.3270  152.1880 C   0  0  0  0  0  0  0  0  0  0  0  0
  132.9530  134.9710  151.8350 O   0  0  0  0  0  0  0  0  0  0  0  0
  135.9070  136.0710  151.6530 H   0  0  0  0  0  0  0  0  0  0  0  0
  134.5200  135.2640  153.5800 C   0  0  0  0  0  0  0  0  0  0  0  0
  133.9150  134.4570  154.5390 N   0  0  0  0  0  0  0  0  0  0  0  0
  134.5830  134.7030  155.6470 C   0  0  0  0  0  3  0  0  0  0  0  0
  135.5830  135.6170  155.4560 N   0  0  0  0  0  0  0  0  0  0  0  0
  136.4630  136.1420  156.3840 C   0  0  0  0  0  0  0  0  0  0  0  0
  136.4050  135.7780  157.5490 O   0  0  0  0  0  0  0  0  0  0  0  0
  137.3110  137.0630  155.7960 N   0  0  0  0  0  0  0  0  0  0  0  0
  138.3240  137.7280  156.5930 C   0  0  0  0  0  1  0  0  0  0  0  0
  137.2880  137.4130  154.4650 N   0  0  0  0  0  0  0  0  0  0  0  0
  136.4510  136.8900  153.6880 N   0  0  0  0  0  0  0  0  0  0  0  0
  135.5640  135.9810  154.1410 C   0  0  0  0  0  0  0  0  0  0  0  0
  1 19  1  0  0  0  0
  2  1  1  0  0  0  0
  3  2  1  0  0  0  0
  4  7  1  0  0  0  0
  4  5  1  0  0  0  0
  5  3  1  0  0  0  0
  6  5  2  0  0  0  0
  8  4  1  0  0  0  0
  9 14  2  0  0  0  0
  9 10  1  0  0  0  0
 10 11  2  0  0  0  0
 11 12  1  0  0  0  0
 11  8  1  0  0  0  0
 13 12  2  0  0  0  0
 14 13  1  0  0  0  0
 16 15  1  0  0  0  0
 16  9  1  0  0  0  0
 17 14  1  0  0  0  0
 18 17  1  0  0  0  0
 19 20  1  0  0  0  0
 20 21  1  0  0  0  0
 21 22  1  0  0  0  0
 22 25  1  0  0  0  0
 22 23  1  0  0  0  0
 23 26  1  0  0  0  0
 24 23  2  0  0  0  0
 26 36  2  0  0  0  0
 26 27  1  0  0  0  0
 27 28  2  0  0  0  0
 29 28  1  0  0  0  0
 29 30  1  0  0  0  0
 30 31  2  0  0  0  0
 32 30  1  0  0  0  0
 32 33  1  0  0  0  0
 34 32  1  0  0  0  0
 35 36  1  0  0  0  0
 35 34  2  0  0  0  0
 36 29  1  0  0  0  0
M  END
>  <MODEL>
3

>  <REMARK>
 VINA RESULT:    -6.708      7.346     11.570
 INTER + INTRA:         -12.918
 INTER:                 -11.851
 INTRA:                  -1.066
 UNBOUND:                -1.701
  Name = CHEMBL4516048
  14 active torsions:
  status: ('A' for Active; 'I' for Inactive)
    1  A    between atoms: C_1  and  O_2
    2  A    between atoms: O_2  and  C_3
    3  A    between atoms: C_5  and  C_6
    4  A    between atoms: C_6  and  N_7
    5  A    between atoms: C_8  and  C_10
    6  A    between atoms: C_10  and  C_11
    7  A    between atoms: C_11  and  C_12
    8  A    between atoms: C_12  and  C_13
    9  A    between atoms: C_13  and  C_14
   10  A    between atoms: C_14  and  C_15
   11  A    between atoms: C_15  and  N_16
   12  A    between atoms: C_17  and  C_19
   13  A    between atoms: N_25  and  C_26
   14  A    between atoms: C_32  and  O_33
                            x       y       z     vdW  Elec       q    Type
                         _______ _______ _______ _____ _____    ______ ____

>  <TORSDO>
F 12

>  <SCORE>
-6.708

>  <RMSD_LB>
7.346

>  <RMSD_UB>
11.570

$$$$
CHEMBL4516048
 OpenBabel10172500023D

 36 38  0  0  0  0  0  0  0  0999 V2000
  141.9120  138.0350  149.6690 C   0  0  0  0  0  2  0  0  0  0  0  0
  142.7870  138.1800  148.4190 C   0  0  0  0  0  2  0  0  0  0  0  0
  143.3650  139.5890  148.2840 C   0  0  0  0  0  2  0  0  0  0  0  0
  145.2400  138.5610  149.4300 N   0  0  0  0  0  0  0  0  0  0  0  0
  144.6180  139.7450  149.1180 C   0  0  0  0  0  0  0  0  0  0  0  0
  144.9930  140.8410  149.5210 O   0  0  0  0  0  0  0  0  0  0  0  0
  144.8730  137.7200  149.0760 H   0  0  0  0  0  0  0  0  0  0  0  0
  146.4220  138.5180  150.2640 C   0  0  0  0  0  2  0  0  0  0  0  0
  146.5790  139.8000  153.8750 C   0  0  0  0  0  0  0  0  0  0  0  0
  146.8300  139.6440  152.5020 C   0  0  0  0  0  3  0  0  0  0  0  0
  146.1260  138.7030  151.7350 C   0  0  0  0  0  0  0  0  0  0  0  0
  145.1540  137.9150  152.3680 C   0  0  0  0  0  3  0  0  0  0  0  0
  144.9000  138.0530  153.7360 C   0  0  0  0  0  3  0  0  0  0  0  0
  145.6110  138.9910  154.4810 C   0  0  0  0  0  0  0  0  0  0  0  0
  147.9750  141.7190  154.0420 C   0  0  0  0  0  1  0  0  0  0  0  0
  147.2250  140.6990  154.6850 O   0  0  0  0  0  0  0  0  0  0  0  0
  145.3650  139.1280  155.8230 O   0  0  0  0  0  0  0  0  0  0  0  0
  145.7240  139.8530  156.2940 H   0  0  0  0  0  0  0  0  0  0  0  0
  141.2480  139.3550  150.0810 C   0  0  0  0  0  2  0  0  0  0  0  0
  140.2750  139.1870  151.2530 C   0  0  0  0  0  2  0  0  0  0  0  0
  140.9700  138.6100  152.4870 C   0  0  0  0  0  2  0  0  0  0  0  0
  140.0360  137.9670  153.3790 N   0  0  0  0  0  0  0  0  0  0  0  0
  139.8330  138.4310  154.6590 C   0  0  0  0  0  0  0  0  0  0  0  0
  140.4210  139.4090  155.1210 O   0  0  0  0  0  0  0  0  0  0  0  0
  139.5330  137.1810  153.0670 H   0  0  0  0  0  0  0  0  0  0  0  0
  138.8450  137.6740  155.4270 C   0  0  0  0  0  0  0  0  0  0  0  0
  139.0120  137.3400  156.7680 N   0  0  0  0  0  0  0  0  0  0  0  0
  137.9320  136.6510  157.0740 C   0  0  0  0  0  3  0  0  0  0  0  0
  137.0810  136.5250  156.0100 N   0  0  0  0  0  0  0  0  0  0  0  0
  135.8760  135.8500  155.9420 C   0  0  0  0  0  0  0  0  0  0  0  0
  135.4470  135.2730  156.9300 O   0  0  0  0  0  0  0  0  0  0  0  0
  135.3290  135.9390  154.6750 N   0  0  0  0  0  0  0  0  0  0  0  0
  134.0560  135.3060  154.3880 C   0  0  0  0  0  1  0  0  0  0  0  0
  135.9020  136.6110  153.6190 N   0  0  0  0  0  0  0  0  0  0  0  0
  137.0030  137.1970  153.7640 N   0  0  0  0  0  0  0  0  0  0  0  0
  137.6420  137.1790  154.9520 C   0  0  0  0  0  0  0  0  0  0  0  0
  1 19  1  0  0  0  0
  2  1  1  0  0  0  0
  3  2  1  0  0  0  0
  3  5  1  0  0  0  0
  4  8  1  0  0  0  0
  5  4  1  0  0  0  0
  5  6  2  0  0  0  0
  7  4  1  0  0  0  0
  8 11  1  0  0  0  0
  9 14  1  0  0  0  0
  9 16  1  0  0  0  0
 10  9  2  0  0  0  0
 11 12  2  0  0  0  0
 11 10  1  0  0  0  0
 12 13  1  0  0  0  0
 13 14  2  0  0  0  0
 14 17  1  0  0  0  0
 15 16  1  0  0  0  0
 17 18  1  0  0  0  0
 19 20  1  0  0  0  0
 20 21  1  0  0  0  0
 21 22  1  0  0  0  0
 22 23  1  0  0  0  0
 23 24  2  0  0  0  0
 23 26  1  0  0  0  0
 25 22  1  0  0  0  0
 26 27  1  0  0  0  0
 27 28  2  0  0  0  0
 29 28  1  0  0  0  0
 30 29  1  0  0  0  0
 30 31  2  0  0  0  0
 32 30  1  0  0  0  0
 33 32  1  0  0  0  0
 34 35  2  0  0  0  0
 34 32  1  0  0  0  0
 35 36  1  0  0  0  0
 36 26  2  0  0  0  0
 36 29  1  0  0  0  0
M  END
>  <MODEL>
4

>  <REMARK>
 VINA RESULT:    -6.541      3.793      5.179
 INTER + INTRA:         -12.638
 INTER:                 -11.238
 INTRA:                  -1.400
 UNBOUND:                -1.701
  Name = CHEMBL4516048
  14 active torsions:
  status: ('A' for Active; 'I' for Inactive)
    1  A    between atoms: C_1  and  O_2
    2  A    between atoms: O_2  and  C_3
    3  A    between atoms: C_5  and  C_6
    4  A    between atoms: C_6  and  N_7
    5  A    between atoms: C_8  and  C_10
    6  A    between atoms: C_10  and  C_11
    7  A    between atoms: C_11  and  C_12
    8  A    between atoms: C_12  and  C_13
    9  A    between atoms: C_13  and  C_14
   10  A    between atoms: C_14  and  C_15
   11  A    between atoms: C_15  and  N_16
   12  A    between atoms: C_17  and  C_19
   13  A    between atoms: N_25  and  C_26
   14  A    between atoms: C_32  and  O_33
                            x       y       z     vdW  Elec       q    Type
                         _______ _______ _______ _____ _____    ______ ____

>  <TORSDO>
F 12

>  <SCORE>
-6.541

>  <RMSD_LB>
3.793

>  <RMSD_UB>
5.179

$$$$
CHEMBL4516048
 OpenBabel10172500023D

 36 38  0  0  0  0  0  0  0  0999 V2000
  143.2960  135.4260  149.5670 C   0  0  0  0  0  2  0  0  0  0  0  0
  144.0740  135.7500  148.2870 C   0  0  0  0  0  2  0  0  0  0  0  0
  145.1150  136.8470  148.5100 C   0  0  0  0  0  2  0  0  0  0  0  0
  146.3230  137.1820  150.5860 N   0  0  0  0  0  0  0  0  0  0  0  0
  146.1890  136.3910  149.4720 C   0  0  0  0  0  0  0  0  0  0  0  0
  146.9100  135.4290  149.2260 O   0  0  0  0  0  0  0  0  0  0  0  0
  145.7130  137.9440  150.7070 H   0  0  0  0  0  0  0  0  0  0  0  0
  147.3370  136.9250  151.5860 C   0  0  0  0  0  2  0  0  0  0  0  0
  147.6890  140.5340  152.8340 C   0  0  0  0  0  0  0  0  0  0  0  0
  147.4010  139.4250  152.0220 C   0  0  0  0  0  3  0  0  0  0  0  0
  147.6200  138.1150  152.4750 C   0  0  0  0  0  0  0  0  0  0  0  0
  148.1300  137.9290  153.7670 C   0  0  0  0  0  3  0  0  0  0  0  0
  148.4300  139.0240  154.5840 C   0  0  0  0  0  3  0  0  0  0  0  0
  148.2090  140.3170  154.1150 C   0  0  0  0  0  0  0  0  0  0  0  0
  146.1850  142.3620  152.5940 C   0  0  0  0  0  1  0  0  0  0  0  0
  147.5000  141.8400  152.4590 O   0  0  0  0  0  0  0  0  0  0  0  0
  148.5030  141.3940  154.9120 O   0  0  0  0  0  0  0  0  0  0  0  0
  147.8330  141.7850  155.4370 H   0  0  0  0  0  0  0  0  0  0  0  0
  142.5230  136.6350  150.1090 C   0  0  0  0  0  2  0  0  0  0  0  0
  141.4770  137.1620  149.1210 C   0  0  0  0  0  2  0  0  0  0  0  0
  140.1230  137.3830  149.7960 C   0  0  0  0  0  2  0  0  0  0  0  0
  140.2300  137.3630  151.2340 N   0  0  0  0  0  0  0  0  0  0  0  0
  139.8610  138.4500  151.9960 C   0  0  0  0  0  0  0  0  0  0  0  0
  139.4210  139.4910  151.5100 O   0  0  0  0  0  0  0  0  0  0  0  0
  140.5740  136.5570  151.6810 H   0  0  0  0  0  0  0  0  0  0  0  0
  140.0220  138.2600  153.4360 C   0  0  0  0  0  0  0  0  0  0  0  0
  141.2600  138.1160  154.0550 N   0  0  0  0  0  0  0  0  0  0  0  0
  140.9760  137.9470  155.3300 C   0  0  0  0  0  3  0  0  0  0  0  0
  139.6290  137.9780  155.5670 N   0  0  0  0  0  0  0  0  0  0  0  0
  138.9580  137.8070  156.7640 C   0  0  0  0  0  0  0  0  0  0  0  0
  139.5890  137.6080  157.7900 O   0  0  0  0  0  0  0  0  0  0  0  0
  137.5890  137.8860  156.5800 N   0  0  0  0  0  0  0  0  0  0  0  0
  136.6950  137.7430  157.7130 C   0  0  0  0  0  1  0  0  0  0  0  0
  136.9720  138.1060  155.3690 N   0  0  0  0  0  0  0  0  0  0  0  0
  137.6560  138.2480  154.3260 N   0  0  0  0  0  0  0  0  0  0  0  0
  139.0040  138.1860  154.3720 C   0  0  0  0  0  0  0  0  0  0  0  0
  1 19  1  0  0  0  0
  2  3  1  0  0  0  0
  2  1  1  0  0  0  0
  3  5  1  0  0  0  0
  4  7  1  0  0  0  0
  4  8  1  0  0  0  0
  5  4  1  0  0  0  0
  6  5  2  0  0  0  0
  8 11  1  0  0  0  0
  9 14  1  0  0  0  0
 10 11  1  0  0  0  0
 10  9  2  0  0  0  0
 11 12  2  0  0  0  0
 12 13  1  0  0  0  0
 14 13  2  0  0  0  0
 14 17  1  0  0  0  0
 16 15  1  0  0  0  0
 16  9  1  0  0  0  0
 17 18  1  0  0  0  0
 20 21  1  0  0  0  0
 20 19  1  0  0  0  0
 21 22  1  0  0  0  0
 22 25  1  0  0  0  0
 22 23  1  0  0  0  0
 23 26  1  0  0  0  0
 24 23  2  0  0  0  0
 26 27  1  0  0  0  0
 26 36  2  0  0  0  0
 27 28  2  0  0  0  0
 28 29  1  0  0  0  0
 29 30  1  0  0  0  0
 30 31  2  0  0  0  0
 32 30  1  0  0  0  0
 32 33  1  0  0  0  0
 34 32  1  0  0  0  0
 35 36  1  0  0  0  0
 35 34  2  0  0  0  0
 36 29  1  0  0  0  0
M  END
>  <MODEL>
5

>  <REMARK>
 VINA RESULT:    -6.482      4.655      6.278
 INTER + INTRA:         -12.541
 INTER:                 -11.400
 INTRA:                  -1.141
 UNBOUND:                -1.701
  Name = CHEMBL4516048
  14 active torsions:
  status: ('A' for Active; 'I' for Inactive)
    1  A    between atoms: C_1  and  O_2
    2  A    between atoms: O_2  and  C_3
    3  A    between atoms: C_5  and  C_6
    4  A    between atoms: C_6  and  N_7
    5  A    between atoms: C_8  and  C_10
    6  A    between atoms: C_10  and  C_11
    7  A    between atoms: C_11  and  C_12
    8  A    between atoms: C_12  and  C_13
    9  A    between atoms: C_13  and  C_14
   10  A    between atoms: C_14  and  C_15
   11  A    between atoms: C_15  and  N_16
   12  A    between atoms: C_17  and  C_19
   13  A    between atoms: N_25  and  C_26
   14  A    between atoms: C_32  and  O_33
                            x       y       z     vdW  Elec       q    Type
                         _______ _______ _______ _____ _____    ______ ____

>  <TORSDO>
F 12

>  <SCORE>
-6.482

>  <RMSD_LB>
4.655

>  <RMSD_UB>
6.278

$$$$
CHEMBL4516048
 OpenBabel10172500023D

 36 38  0  0  0  0  0  0  0  0999 V2000
  141.2950  136.4320  149.4690 C   0  0  0  0  0  2  0  0  0  0  0  0
  142.2100  136.6670  148.2630 C   0  0  0  0  0  2  0  0  0  0  0  0
  143.6770  136.8020  148.6720 C   0  0  0  0  0  2  0  0  0  0  0  0
  145.4030  138.4620  149.0560 N   0  0  0  0  0  0  0  0  0  0  0  0
  144.1480  138.2340  148.5480 C   0  0  0  0  0  0  0  0  0  0  0  0
  143.4280  139.1120  148.0850 O   0  0  0  0  0  0  0  0  0  0  0  0
  145.9150  137.7060  149.4210 H   0  0  0  0  0  0  0  0  0  0  0  0
  145.9910  139.7840  149.0700 C   0  0  0  0  0  2  0  0  0  0  0  0
  145.3200  140.4280  152.7900 C   0  0  0  0  0  0  0  0  0  0  0  0
  145.3450  139.8200  151.5240 C   0  0  0  0  0  3  0  0  0  0  0  0
  145.9930  140.4280  150.4370 C   0  0  0  0  0  0  0  0  0  0  0  0
  146.6260  141.6620  150.6390 C   0  0  0  0  0  3  0  0  0  0  0  0
  146.6010  142.2840  151.8920 C   0  0  0  0  0  3  0  0  0  0  0  0
  145.9500  141.6670  152.9580 C   0  0  0  0  0  0  0  0  0  0  0  0
  145.0140  138.5400  154.2050 C   0  0  0  0  0  1  0  0  0  0  0  0
  144.7100  139.8930  153.8960 O   0  0  0  0  0  0  0  0  0  0  0  0
  145.9230  142.2730  154.1870 O   0  0  0  0  0  0  0  0  0  0  0  0
  146.2820  141.8360  154.9340 H   0  0  0  0  0  0  0  0  0  0  0  0
  141.0430  137.7110  150.2770 C   0  0  0  0  0  2  0  0  0  0  0  0
  140.2340  137.4550  151.5530 C   0  0  0  0  0  2  0  0  0  0  0  0
  138.9730  138.3190  151.6050 C   0  0  0  0  0  2  0  0  0  0  0  0
  137.7770  137.5340  151.4190 N   0  0  0  0  0  0  0  0  0  0  0  0
  137.0550  137.0620  152.4920 C   0  0  0  0  0  0  0  0  0  0  0  0
  137.3730  137.2750  153.6610 O   0  0  0  0  0  0  0  0  0  0  0  0
  137.4700  137.3310  150.5050 H   0  0  0  0  0  0  0  0  0  0  0  0
  135.8650  136.2940  152.1280 C   0  0  0  0  0  0  0  0  0  0  0  0
  134.7170  136.2460  152.9140 N   0  0  0  0  0  0  0  0  0  0  0  0
  133.9020  135.4440  152.2610 C   0  0  0  0  0  3  0  0  0  0  0  0
  134.4570  134.9770  151.1000 N   0  0  0  0  0  0  0  0  0  0  0  0
  133.9200  134.0980  150.1780 C   0  0  0  0  0  0  0  0  0  0  0  0
  132.7990  133.6450  150.3530 O   0  0  0  0  0  0  0  0  0  0  0  0
  134.8100  133.8570  149.1480 N   0  0  0  0  0  0  0  0  0  0  0  0
  134.4420  132.9670  148.0630 C   0  0  0  0  0  1  0  0  0  0  0  0
  136.0650  134.4150  149.0480 N   0  0  0  0  0  0  0  0  0  0  0  0
  136.4790  135.2030  149.9330 N   0  0  0  0  0  0  0  0  0  0  0  0
  135.7060  135.5160  150.9940 C   0  0  0  0  0  0  0  0  0  0  0  0
  1 19  1  0  0  0  0
  2  3  1  0  0  0  0
  2  1  1  0  0  0  0
  4  8  1  0  0  0  0
  4  7  1  0  0  0  0
  5  3  1  0  0  0  0
  5  4  1  0  0  0  0
  6  5  2  0  0  0  0
  8 11  1  0  0  0  0
  9 14  1  0  0  0  0
  9 16  1  0  0  0  0
 10  9  2  0  0  0  0
 11 12  2  0  0  0  0
 11 10  1  0  0  0  0
 12 13  1  0  0  0  0
 13 14  2  0  0  0  0
 14 17  1  0  0  0  0
 16 15  1  0  0  0  0
 17 18  1  0  0  0  0
 19 20  1  0  0  0  0
 20 21  1  0  0  0  0
 22 21  1  0  0  0  0
 22 23  1  0  0  0  0
 23 24  2  0  0  0  0
 25 22  1  0  0  0  0
 26 23  1  0  0  0  0
 26 27  1  0  0  0  0
 28 27  2  0  0  0  0
 29 28  1  0  0  0  0
 30 31  2  0  0  0  0
 30 29  1  0  0  0  0
 32 30  1  0  0  0  0
 33 32  1  0  0  0  0
 34 32  1  0  0  0  0
 34 35  2  0  0  0  0
 35 36  1  0  0  0  0
 36 29  1  0  0  0  0
 36 26  2  0  0  0  0
M  END
>  <MODEL>
6

>  <REMARK>
 VINA RESULT:    -6.475      2.038      2.328
 INTER + INTRA:         -12.529
 INTER:                 -11.323
 INTRA:                  -1.206
 UNBOUND:                -1.701
  Name = CHEMBL4516048
  14 active torsions:
  status: ('A' for Active; 'I' for Inactive)
    1  A    between atoms: C_1  and  O_2
    2  A    between atoms: O_2  and  C_3
    3  A    between atoms: C_5  and  C_6
    4  A    between atoms: C_6  and  N_7
    5  A    between atoms: C_8  and  C_10
    6  A    between atoms: C_10  and  C_11
    7  A    between atoms: C_11  and  C_12
    8  A    between atoms: C_12  and  C_13
    9  A    between atoms: C_13  and  C_14
   10  A    between atoms: C_14  and  C_15
   11  A    between atoms: C_15  and  N_16
   12  A    between atoms: C_17  and  C_19
   13  A    between atoms: N_25  and  C_26
   14  A    between atoms: C_32  and  O_33
                            x       y       z     vdW  Elec       q    Type
                         _______ _______ _______ _____ _____    ______ ____

>  <TORSDO>
F 12

>  <SCORE>
-6.475

>  <RMSD_LB>
2.038

>  <RMSD_UB>
2.328

$$$$
CHEMBL4516048
 OpenBabel10172500023D

 36 38  0  0  0  0  0  0  0  0999 V2000
  140.8800  136.4700  148.3630 C   0  0  0  0  0  2  0  0  0  0  0  0
  141.7930  136.3250  149.5850 C   0  0  0  0  0  2  0  0  0  0  0  0
  143.0310  137.2160  149.4860 C   0  0  0  0  0  2  0  0  0  0  0  0
  144.7490  137.1430  151.1970 N   0  0  0  0  0  0  0  0  0  0  0  0
  144.2430  136.5310  150.0760 C   0  0  0  0  0  0  0  0  0  0  0  0
  144.7530  135.5490  149.5460 O   0  0  0  0  0  0  0  0  0  0  0  0
  144.2900  137.9340  151.5570 H   0  0  0  0  0  0  0  0  0  0  0  0
  145.9380  136.6540  151.8610 C   0  0  0  0  0  2  0  0  0  0  0  0
  147.4760  140.1120  152.4800 C   0  0  0  0  0  0  0  0  0  0  0  0
  146.6420  139.0890  152.0010 C   0  0  0  0  0  3  0  0  0  0  0  0
  146.8200  137.7560  152.4030 C   0  0  0  0  0  0  0  0  0  0  0  0
  147.8530  137.4600  153.3040 C   0  0  0  0  0  3  0  0  0  0  0  0
  148.6970  138.4670  153.7810 C   0  0  0  0  0  3  0  0  0  0  0  0
  148.5070  139.7840  153.3690 C   0  0  0  0  0  0  0  0  0  0  0  0
  146.2310  142.1330  152.6390 C   0  0  0  0  0  1  0  0  0  0  0  0
  147.3600  141.4340  152.1330 O   0  0  0  0  0  0  0  0  0  0  0  0
  149.3340  140.7740  153.8340 O   0  0  0  0  0  0  0  0  0  0  0  0
  150.1330  140.5520  154.2690 H   0  0  0  0  0  0  0  0  0  0  0  0
  139.6700  137.3730  148.6340 C   0  0  0  0  0  2  0  0  0  0  0  0
  138.3630  136.7930  148.0820 C   0  0  0  0  0  2  0  0  0  0  0  0
  137.1650  137.6840  148.4100 C   0  0  0  0  0  2  0  0  0  0  0  0
  136.4080  137.1770  149.5280 N   0  0  0  0  0  0  0  0  0  0  0  0
  135.3340  136.3350  149.3430 C   0  0  0  0  0  0  0  0  0  0  0  0
  134.9570  135.9630  148.2330 O   0  0  0  0  0  0  0  0  0  0  0  0
  136.6630  137.4380  150.4420 H   0  0  0  0  0  0  0  0  0  0  0  0
  134.6840  135.9040  150.5800 C   0  0  0  0  0  0  0  0  0  0  0  0
  133.4310  135.2990  150.6140 N   0  0  0  0  0  0  0  0  0  0  0  0
  133.1980  135.0920  151.8930 C   0  0  0  0  0  3  0  0  0  0  0  0
  134.2300  135.5230  152.6820 N   0  0  0  0  0  0  0  0  0  0  0  0
  134.3300  135.5020  154.0610 C   0  0  0  0  0  0  0  0  0  0  0  0
  133.4170  135.0400  154.7290 O   0  0  0  0  0  0  0  0  0  0  0  0
  135.5260  136.0570  154.4790 N   0  0  0  0  0  0  0  0  0  0  0  0
  135.8400  136.1250  155.8930 C   0  0  0  0  0  1  0  0  0  0  0  0
  136.4930  136.5630  153.6390 N   0  0  0  0  0  0  0  0  0  0  0  0
  136.3200  136.5470  152.3950 N   0  0  0  0  0  0  0  0  0  0  0  0
  135.1910  136.0370  151.8610 C   0  0  0  0  0  0  0  0  0  0  0  0
  1 19  1  0  0  0  0
  1  2  1  0  0  0  0
  3  2  1  0  0  0  0
  3  5  1  0  0  0  0
  4  7  1  0  0  0  0
  4  8  1  0  0  0  0
  5  4  1  0  0  0  0
  6  5  2  0  0  0  0
  8 11  1  0  0  0  0
  9 14  1  0  0  0  0
 10 11  1  0  0  0  0
 10  9  2  0  0  0  0
 11 12  2  0  0  0  0
 12 13  1  0  0  0  0
 14 13  2  0  0  0  0
 14 17  1  0  0  0  0
 16  9  1  0  0  0  0
 16 15  1  0  0  0  0
 17 18  1  0  0  0  0
 20 21  1  0  0  0  0
 20 19  1  0  0  0  0
 21 22  1  0  0  0  0
 22 25  1  0  0  0  0
 23 22  1  0  0  0  0
 23 26  1  0  0  0  0
 24 23  2  0  0  0  0
 26 27  1  0  0  0  0
 26 36  2  0  0  0  0
 27 28  2  0  0  0  0
 28 29  1  0  0  0  0
 29 30  1  0  0  0  0
 30 32  1  0  0  0  0
 30 31  2  0  0  0  0
 32 33  1  0  0  0  0
 34 32  1  0  0  0  0
 35 34  2  0  0  0  0
 36 35  1  0  0  0  0
 36 29  1  0  0  0  0
M  END
>  <MODEL>
7

>  <REMARK>
 VINA RESULT:    -6.400      2.279      4.009
 INTER + INTRA:         -12.404
 INTER:                 -11.483
 INTRA:                  -0.921
 UNBOUND:                -1.701
  Name = CHEMBL4516048
  14 active torsions:
  status: ('A' for Active; 'I' for Inactive)
    1  A    between atoms: C_1  and  O_2
    2  A    between atoms: O_2  and  C_3
    3  A    between atoms: C_5  and  C_6
    4  A    between atoms: C_6  and  N_7
    5  A    between atoms: C_8  and  C_10
    6  A    between atoms: C_10  and  C_11
    7  A    between atoms: C_11  and  C_12
    8  A    between atoms: C_12  and  C_13
    9  A    between atoms: C_13  and  C_14
   10  A    between atoms: C_14  and  C_15
   11  A    between atoms: C_15  and  N_16
   12  A    between atoms: C_17  and  C_19
   13  A    between atoms: N_25  and  C_26
   14  A    between atoms: C_32  and  O_33
                            x       y       z     vdW  Elec       q    Type
                         _______ _______ _______ _____ _____    ______ ____

>  <TORSDO>
F 12

>  <SCORE>
-6.400

>  <RMSD_LB>
2.279

>  <RMSD_UB>
4.009

$$$$
CHEMBL4516048
 OpenBabel10172500023D

 36 38  0  0  0  0  0  0  0  0999 V2000
  137.9070  134.8970  145.0760 C   0  0  0  0  0  2  0  0  0  0  0  0
  136.9930  134.5130  143.9070 C   0  0  0  0  0  2  0  0  0  0  0  0
  136.4360  135.7400  143.1870 C   0  0  0  0  0  2  0  0  0  0  0  0
  134.5900  135.8440  144.7580 N   0  0  0  0  0  0  0  0  0  0  0  0
  135.5640  136.5640  144.1080 C   0  0  0  0  0  0  0  0  0  0  0  0
  135.6920  137.7790  144.2040 O   0  0  0  0  0  0  0  0  0  0  0  0
  134.5450  134.8710  144.6220 H   0  0  0  0  0  0  0  0  0  0  0  0
  133.6320  136.4790  145.6370 C   0  0  0  0  0  2  0  0  0  0  0  0
  133.4280  135.7160  149.3900 C   0  0  0  0  0  0  0  0  0  0  0  0
  133.1080  135.7950  148.0250 C   0  0  0  0  0  3  0  0  0  0  0  0
  133.9950  136.3690  147.1010 C   0  0  0  0  0  0  0  0  0  0  0  0
  135.2210  136.8620  147.5670 C   0  0  0  0  0  3  0  0  0  0  0  0
  135.5500  136.7990  148.9240 C   0  0  0  0  0  3  0  0  0  0  0  0
  134.6550  136.2290  149.8270 C   0  0  0  0  0  0  0  0  0  0  0  0
  132.5000  133.7520  150.3600 C   0  0  0  0  0  1  0  0  0  0  0  0
  132.6140  135.1680  150.3480 O   0  0  0  0  0  0  0  0  0  0  0  0
  134.9740  136.1660  151.1590 O   0  0  0  0  0  0  0  0  0  0  0  0
  135.4700  136.8540  151.5560 H   0  0  0  0  0  0  0  0  0  0  0  0
  137.4860  134.2360  146.3950 C   0  0  0  0  0  2  0  0  0  0  0  0
  138.4940  134.4760  147.5250 C   0  0  0  0  0  2  0  0  0  0  0  0
  139.0980  135.8790  147.4550 C   0  0  0  0  0  2  0  0  0  0  0  0
  139.4120  136.3940  148.7660 N   0  0  0  0  0  0  0  0  0  0  0  0
  139.1270  137.6960  149.1120 C   0  0  0  0  0  0  0  0  0  0  0  0
  138.5910  138.4930  148.3420 O   0  0  0  0  0  0  0  0  0  0  0  0
  139.8400  135.8030  149.4260 H   0  0  0  0  0  0  0  0  0  0  0  0
  139.5000  138.0530  150.4790 C   0  0  0  0  0  0  0  0  0  0  0  0
  140.7020  138.6730  150.8060 N   0  0  0  0  0  0  0  0  0  0  0  0
  140.6640  138.7980  152.1170 C   0  0  0  0  0  3  0  0  0  0  0  0
  139.5070  138.3000  152.6500 N   0  0  0  0  0  0  0  0  0  0  0  0
  139.1280  138.2280  153.9780 C   0  0  0  0  0  0  0  0  0  0  0  0
  139.8720  138.6580  154.8450 O   0  0  0  0  0  0  0  0  0  0  0  0
  137.8880  137.6300  154.1070 N   0  0  0  0  0  0  0  0  0  0  0  0
  137.2950  137.4630  155.4200 C   0  0  0  0  0  1  0  0  0  0  0  0
  137.1270  137.1660  153.0570 N   0  0  0  0  0  0  0  0  0  0  0  0
  137.5470  137.2670  151.8780 N   0  0  0  0  0  0  0  0  0  0  0  0
  138.7470  137.8280  151.6190 C   0  0  0  0  0  0  0  0  0  0  0  0
  1 19  1  0  0  0  0
  2  1  1  0  0  0  0
  3  2  1  0  0  0  0
  3  5  1  0  0  0  0
  4  8  1  0  0  0  0
  5  6  2  0  0  0  0
  5  4  1  0  0  0  0
  7  4  1  0  0  0  0
  8 11  1  0  0  0  0
  9 14  1  0  0  0  0
  9 16  1  0  0  0  0
 10  9  2  0  0  0  0
 11 12  2  0  0  0  0
 11 10  1  0  0  0  0
 12 13  1  0  0  0  0
 13 14  2  0  0  0  0
 14 17  1  0  0  0  0
 16 15  1  0  0  0  0
 17 18  1  0  0  0  0
 19 20  1  0  0  0  0
 21 20  1  0  0  0  0
 21 22  1  0  0  0  0
 22 23  1  0  0  0  0
 22 25  1  0  0  0  0
 23 26  1  0  0  0  0
 24 23  2  0  0  0  0
 26 27  1  0  0  0  0
 26 36  2  0  0  0  0
 27 28  2  0  0  0  0
 28 29  1  0  0  0  0
 29 30  1  0  0  0  0
 30 32  1  0  0  0  0
 30 31  2  0  0  0  0
 32 33  1  0  0  0  0
 34 32  1  0  0  0  0
 35 34  2  0  0  0  0
 36 35  1  0  0  0  0
 36 29  1  0  0  0  0
M  END
>  <MODEL>
8

>  <REMARK>
 VINA RESULT:    -6.326      5.035     10.898
 INTER + INTRA:         -12.280
 INTER:                  -9.791
 INTRA:                  -2.488
 UNBOUND:                -1.701
  Name = CHEMBL4516048
  14 active torsions:
  status: ('A' for Active; 'I' for Inactive)
    1  A    between atoms: C_1  and  O_2
    2  A    between atoms: O_2  and  C_3
    3  A    between atoms: C_5  and  C_6
    4  A    between atoms: C_6  and  N_7
    5  A    between atoms: C_8  and  C_10
    6  A    between atoms: C_10  and  C_11
    7  A    between atoms: C_11  and  C_12
    8  A    between atoms: C_12  and  C_13
    9  A    between atoms: C_13  and  C_14
   10  A    between atoms: C_14  and  C_15
   11  A    between atoms: C_15  and  N_16
   12  A    between atoms: C_17  and  C_19
   13  A    between atoms: N_25  and  C_26
   14  A    between atoms: C_32  and  O_33
                            x       y       z     vdW  Elec       q    Type
                         _______ _______ _______ _____ _____    ______ ____

>  <TORSDO>
F 12

>  <SCORE>
-6.326

>  <RMSD_LB>
5.035

>  <RMSD_UB>
10.898

$$$$
CHEMBL4516048
 OpenBabel10172500023D

 36 38  0  0  0  0  0  0  0  0999 V2000
  138.0490  135.4080  148.9360 C   0  0  0  0  0  2  0  0  0  0  0  0
  137.8460  136.8750  148.5420 C   0  0  0  0  0  2  0  0  0  0  0  0
  139.0050  137.4090  147.7000 C   0  0  0  0  0  2  0  0  0  0  0  0
  137.4260  137.1540  145.8770 N   0  0  0  0  0  0  0  0  0  0  0  0
  138.7540  137.1890  146.2250 C   0  0  0  0  0  0  0  0  0  0  0  0
  139.6720  136.9970  145.4350 O   0  0  0  0  0  0  0  0  0  0  0  0
  136.7460  137.3070  146.5710 H   0  0  0  0  0  0  0  0  0  0  0  0
  137.0010  136.9000  144.5170 C   0  0  0  0  0  2  0  0  0  0  0  0
  136.3290  133.1250  144.5950 C   0  0  0  0  0  0  0  0  0  0  0  0
  136.3030  134.4920  144.9160 C   0  0  0  0  0  3  0  0  0  0  0  0
  137.0070  135.4340  144.1490 C   0  0  0  0  0  0  0  0  0  0  0  0
  137.7390  134.9840  143.0420 C   0  0  0  0  0  3  0  0  0  0  0  0
  137.7810  133.6250  142.7150 C   0  0  0  0  0  3  0  0  0  0  0  0
  137.0790  132.7040  143.4910 C   0  0  0  0  0  0  0  0  0  0  0  0
  136.1330  131.8730  146.6080 C   0  0  0  0  0  1  0  0  0  0  0  0
  135.6650  132.1510  145.2960 O   0  0  0  0  0  0  0  0  0  0  0  0
  137.1190  131.3710  143.1740 O   0  0  0  0  0  0  0  0  0  0  0  0
  136.8500  131.0820  142.3240 H   0  0  0  0  0  0  0  0  0  0  0  0
  136.7760  134.7690  149.5050 C   0  0  0  0  0  2  0  0  0  0  0  0
  135.5170  135.1560  148.7200 C   0  0  0  0  0  2  0  0  0  0  0  0
  134.5050  135.8890  149.6010 C   0  0  0  0  0  2  0  0  0  0  0  0
  134.8530  135.8110  150.9980 N   0  0  0  0  0  0  0  0  0  0  0  0
  133.9860  135.2750  151.9240 C   0  0  0  0  0  0  0  0  0  0  0  0
  132.8770  134.8310  151.6280 O   0  0  0  0  0  0  0  0  0  0  0  0
  135.7280  136.1490  151.2970 H   0  0  0  0  0  0  0  0  0  0  0  0
  134.4970  135.2620  153.2940 C   0  0  0  0  0  0  0  0  0  0  0  0
  133.8910  134.5560  154.3290 N   0  0  0  0  0  0  0  0  0  0  0  0
  134.6320  134.8190  155.3860 C   0  0  0  0  0  3  0  0  0  0  0  0
  135.6790  135.6480  155.0900 N   0  0  0  0  0  0  0  0  0  0  0  0
  136.6410  136.1630  155.9400 C   0  0  0  0  0  0  0  0  0  0  0  0
  136.6210  135.8720  157.1260 O   0  0  0  0  0  0  0  0  0  0  0  0
  137.5170  136.9860  155.2550 N   0  0  0  0  0  0  0  0  0  0  0  0
  138.6130  137.6240  155.9590 C   0  0  0  0  0  1  0  0  0  0  0  0
  137.4460  137.2590  153.9080 N   0  0  0  0  0  0  0  0  0  0  0  0
  136.5370  136.7520  153.2060 N   0  0  0  0  0  0  0  0  0  0  0  0
  135.6150  135.9350  153.7580 C   0  0  0  0  0  0  0  0  0  0  0  0
  1 19  1  0  0  0  0
  2  1  1  0  0  0  0
  3  2  1  0  0  0  0
  4  5  1  0  0  0  0
  4  7  1  0  0  0  0
  5  3  1  0  0  0  0
  6  5  2  0  0  0  0
  8  4  1  0  0  0  0
  9 10  1  0  0  0  0
  9 16  1  0  0  0  0
 11  8  1  0  0  0  0
 11 10  2  0  0  0  0
 12 11  1  0  0  0  0
 13 12  2  0  0  0  0
 13 14  1  0  0  0  0
 14  9  2  0  0  0  0
 16 15  1  0  0  0  0
 17 14  1  0  0  0  0
 18 17  1  0  0  0  0
 20 19  1  0  0  0  0
 20 21  1  0  0  0  0
 21 22  1  0  0  0  0
 22 25  1  0  0  0  0
 22 23  1  0  0  0  0
 23 26  1  0  0  0  0
 24 23  2  0  0  0  0
 26 36  2  0  0  0  0
 26 27  1  0  0  0  0
 27 28  2  0  0  0  0
 29 28  1  0  0  0  0
 29 30  1  0  0  0  0
 30 31  2  0  0  0  0
 32 30  1  0  0  0  0
 32 33  1  0  0  0  0
 34 32  1  0  0  0  0
 35 36  1  0  0  0  0
 35 34  2  0  0  0  0
 36 29  1  0  0  0  0
M  END
>  <MODEL>
9

>  <REMARK>
 VINA RESULT:    -6.206      6.692     10.243
 INTER + INTRA:         -12.080
 INTER:                 -10.379
 INTRA:                  -1.701
 UNBOUND:                -1.701
  Name = CHEMBL4516048
  14 active torsions:
  status: ('A' for Active; 'I' for Inactive)
    1  A    between atoms: C_1  and  O_2
    2  A    between atoms: O_2  and  C_3
    3  A    between atoms: C_5  and  C_6
    4  A    between atoms: C_6  and  N_7
    5  A    between atoms: C_8  and  C_10
    6  A    between atoms: C_10  and  C_11
    7  A    between atoms: C_11  and  C_12
    8  A    between atoms: C_12  and  C_13
    9  A    between atoms: C_13  and  C_14
   10  A    between atoms: C_14  and  C_15
   11  A    between atoms: C_15  and  N_16
   12  A    between atoms: C_17  and  C_19
   13  A    between atoms: N_25  and  C_26
   14  A    between atoms: C_32  and  O_33
                            x       y       z     vdW  Elec       q    Type
                         _______ _______ _______ _____ _____    ______ ____

>  <TORSDO>
F 12

>  <SCORE>
-6.206

>  <RMSD_LB>
6.692

>  <RMSD_UB>
10.243

$$$$
