CHEMBL333488
 OpenBabel10172500363D

 38 39  0  0  0  0  0  0  0  0999 V2000
  145.1190  140.9480  151.4580 C   0  0  0  0  0  2  0  0  0  0  0  0
  145.6140  142.3270  151.8960 C   0  0  0  0  0  2  0  0  0  0  0  0
  146.4230  142.2640  153.1990 C   0  0  0  0  0  2  0  0  0  0  0  0
  147.8790  141.8820  152.9400 C   0  0  0  0  0  2  0  0  0  0  0  0
  148.5540  141.2230  154.1380 C   0  0  0  0  0  2  0  0  0  0  0  0
  148.2210  139.7400  154.1730 C   0  0  0  0  0  0  0  0  0  0  0  0
  147.9900  139.1510  155.2230 O   0  0  0  0  0  0  0  0  0  0  0  0
  148.2290  139.1320  152.9380 N   0  0  0  0  0  0  0  0  0  0  0  0
  148.3860  139.6830  152.1370 H   0  0  0  0  0  0  0  0  0  0  0  0
  148.0160  137.7140  152.7760 C   0  0  0  0  0  2  0  0  0  0  0  0
  147.0440  137.4180  151.6680 C   0  0  0  0  0  0  0  0  0  0  0  0
  146.1110  136.3790  151.8060 C   0  0  0  0  0  3  0  0  0  0  0  0
  145.2030  136.0810  150.7830 C   0  0  0  0  0  3  0  0  0  0  0  0
  145.2060  136.8310  149.6100 C   0  0  0  0  0  0  0  0  0  0  0  0
  146.1280  137.8750  149.4820 C   0  0  0  0  0  0  0  0  0  0  0  0
  147.0350  138.1760  150.4930 C   0  0  0  0  0  3  0  0  0  0  0  0
  146.1600  138.6350  148.3440 O   0  0  0  0  0  0  0  0  0  0  0  0
  145.4450  138.6060  147.7410 H   0  0  0  0  0  0  0  0  0  0  0  0
  144.3720  136.6460  148.5340 O   0  0  0  0  0  0  0  0  0  0  0  0
  142.9810  136.8330  148.7840 C   0  0  0  0  0  1  0  0  0  0  0  0
  144.7280  140.0610  152.6340 C   0  0  0  0  0  2  0  0  0  0  0  0
  143.4540  139.2950  152.2830 C   0  0  0  0  0  2  0  0  0  0  0  0
  142.8950  139.6890  150.9210 C   0  0  0  0  0  2  0  0  0  0  0  0
  140.8620  139.0780  152.0770 N   0  0  0  0  0  0  0  0  0  0  0  0
  141.3820  139.5720  150.9030 C   0  0  0  0  0  0  0  0  0  0  0  0
  140.6910  139.8670  149.9340 O   0  0  0  0  0  0  0  0  0  0  0  0
  141.4700  138.8750  152.8250 H   0  0  0  0  0  0  0  0  0  0  0  0
  139.4440  138.8520  152.2380 C   0  0  0  0  0  2  0  0  0  0  0  0
  138.4350  137.3470  156.1770 C   0  0  0  0  0  0  0  0  0  0  0  0
  139.7210  137.8240  155.9060 C   0  0  0  0  0  3  0  0  0  0  0  0
  140.0460  138.3200  154.6360 C   0  0  0  0  0  3  0  0  0  0  0  0
  139.0930  138.3400  153.6110 C   0  0  0  0  0  0  0  0  0  0  0  0
  137.8010  137.8710  153.8830 C   0  0  0  0  0  3  0  0  0  0  0  0
  137.4830  137.3740  155.1500 C   0  0  0  0  0  0  0  0  0  0  0  0
  136.2200  136.8980  155.3920 O   0  0  0  0  0  0  0  0  0  0  0  0
  135.4960  137.2160  154.8910 H   0  0  0  0  0  0  0  0  0  0  0  0
  137.7920  137.7790  158.4290 C   0  0  0  0  0  1  0  0  0  0  0  0
  138.0220  136.8460  157.3830 O   0  0  0  0  0  0  0  0  0  0  0  0
  1  2  1  0  0  0  0
  1 21  1  0  0  0  0
  2  3  1  0  0  0  0
  4  3  1  0  0  0  0
  4  5  1  0  0  0  0
  5  6  1  0  0  0  0
  6  7  2  0  0  0  0
  8  6  1  0  0  0  0
  9  8  1  0  0  0  0
 10  8  1  0  0  0  0
 11 12  1  0  0  0  0
 11 10  1  0  0  0  0
 13 12  2  0  0  0  0
 14 13  1  0  0  0  0
 15 14  2  0  0  0  0
 15 16  1  0  0  0  0
 16 11  2  0  0  0  0
 17 15  1  0  0  0  0
 18 17  1  0  0  0  0
 19 20  1  0  0  0  0
 19 14  1  0  0  0  0
 22 21  1  0  0  0  0
 23 22  1  0  0  0  0
 24 28  1  0  0  0  0
 24 27  1  0  0  0  0
 25 23  1  0  0  0  0
 25 24  1  0  0  0  0
 26 25  2  0  0  0  0
 28 32  1  0  0  0  0
 29 38  1  0  0  0  0
 30 29  1  0  0  0  0
 31 30  2  0  0  0  0
 32 33  2  0  0  0  0
 32 31  1  0  0  0  0
 33 34  1  0  0  0  0
 34 35  1  0  0  0  0
 34 29  2  0  0  0  0
 36 35  1  0  0  0  0
 38 37  1  0  0  0  0
M  END
>  <MODEL>
1

>  <REMARK>
 VINA RESULT:    -7.152      0.000      0.000
 INTER + INTRA:         -15.667
 INTER:                 -12.884
 INTRA:                  -2.783
 UNBOUND:                -1.826
  Name = CHEMBL333488
  19 active torsions:
  status: ('A' for Active; 'I' for Inactive)
    1  A    between atoms: C_1  and  O_2
    2  A    between atoms: O_2  and  C_3
    3  A    between atoms: C_6  and  C_7
    4  A    between atoms: C_7  and  N_8
    5  A    between atoms: C_9  and  C_11
    6  A    between atoms: C_11  and  C_12
    7  A    between atoms: C_12  and  C_13
    8  A    between atoms: C_13  and  C_14
    9  A    between atoms: C_14  and  C_15
   10  A    between atoms: C_15  and  C_16
   11  A    between atoms: C_16  and  C_17
   12  A    between atoms: C_17  and  C_18
   13  A    between atoms: C_18  and  C_19
   14  A    between atoms: N_21  and  C_22
   15  A    between atoms: C_22  and  C_23
   16  A    between atoms: C_26  and  O_27
   17  A    between atoms: O_27  and  C_28
   18  A    between atoms: C_29  and  O_30
   19  A    between atoms: C_33  and  O_34
                            x       y       z     vdW  Elec       q    Type
                         _______ _______ _______ _____ _____    ______ ____

>  <TORSDO>
F 17

>  <SCORE>
-7.152

>  <RMSD_LB>
0.000

>  <RMSD_UB>
0.000

$$$$
CHEMBL333488
 OpenBabel10172500363D

 38 39  0  0  0  0  0  0  0  0999 V2000
  145.6970  136.2400  152.5830 C   0  0  0  0  0  2  0  0  0  0  0  0
  146.1010  136.7350  153.9720 C   0  0  0  0  0  2  0  0  0  0  0  0
  147.4560  137.4570  153.9590 C   0  0  0  0  0  2  0  0  0  0  0  0
  147.5560  138.4850  155.0850 C   0  0  0  0  0  2  0  0  0  0  0  0
  148.0180  139.8580  154.6110 C   0  0  0  0  0  2  0  0  0  0  0  0
  146.8600  140.6070  153.9730 C   0  0  0  0  0  0  0  0  0  0  0  0
  145.6930  140.3650  154.2600 O   0  0  0  0  0  0  0  0  0  0  0  0
  147.2420  141.5460  153.0410 N   0  0  0  0  0  0  0  0  0  0  0  0
  148.2020  141.7080  152.8960 H   0  0  0  0  0  0  0  0  0  0  0  0
  146.2830  142.3020  152.2720 C   0  0  0  0  0  2  0  0  0  0  0  0
  145.8190  141.5470  151.0580 C   0  0  0  0  0  0  0  0  0  0  0  0
  146.7380  141.1720  150.0670 C   0  0  0  0  0  3  0  0  0  0  0  0
  146.3250  140.4760  148.9240 C   0  0  0  0  0  3  0  0  0  0  0  0
  144.9860  140.1310  148.7650 C   0  0  0  0  0  0  0  0  0  0  0  0
  144.0750  140.4940  149.7640 C   0  0  0  0  0  0  0  0  0  0  0  0
  144.4770  141.1880  150.9010 C   0  0  0  0  0  3  0  0  0  0  0  0
  142.7500  140.1710  149.6440 O   0  0  0  0  0  0  0  0  0  0  0  0
  142.3620  139.5580  150.2360 H   0  0  0  0  0  0  0  0  0  0  0  0
  144.4500  139.4500  147.6990 O   0  0  0  0  0  0  0  0  0  0  0  0
  145.3710  139.0540  146.6860 C   0  0  0  0  0  1  0  0  0  0  0  0
  146.7280  136.5820  151.5130 C   0  0  0  0  0  2  0  0  0  0  0  0
  146.5050  135.6850  150.2970 C   0  0  0  0  0  2  0  0  0  0  0  0
  145.7100  136.3800  149.1990 C   0  0  0  0  0  2  0  0  0  0  0  0
  143.3890  137.0440  149.3370 N   0  0  0  0  0  0  0  0  0  0  0  0
  144.2480  135.9720  149.2490 C   0  0  0  0  0  0  0  0  0  0  0  0
  143.8690  134.8060  149.2360 O   0  0  0  0  0  0  0  0  0  0  0  0
  143.7560  137.9570  149.3270 H   0  0  0  0  0  0  0  0  0  0  0  0
  141.9600  136.8580  149.4410 C   0  0  0  0  0  2  0  0  0  0  0  0
  140.4010  137.9880  153.3250 C   0  0  0  0  0  0  0  0  0  0  0  0
  141.7700  137.7710  153.1450 C   0  0  0  0  0  3  0  0  0  0  0  0
  142.2770  137.4150  151.8880 C   0  0  0  0  0  3  0  0  0  0  0  0
  141.4220  137.2610  150.7890 C   0  0  0  0  0  0  0  0  0  0  0  0
  140.0510  137.4870  150.9660 C   0  0  0  0  0  3  0  0  0  0  0  0
  139.5500  137.8380  152.2230 C   0  0  0  0  0  0  0  0  0  0  0  0
  138.2020  138.0340  152.3830 O   0  0  0  0  0  0  0  0  0  0  0  0
  137.7910  138.7870  152.0090 H   0  0  0  0  0  0  0  0  0  0  0  0
  140.6340  138.3330  155.6700 C   0  0  0  0  0  1  0  0  0  0  0  0
  139.8120  138.3390  154.5120 O   0  0  0  0  0  0  0  0  0  0  0  0
  1  2  1  0  0  0  0
  3  2  1  0  0  0  0
  3  4  1  0  0  0  0
  5  4  1  0  0  0  0
  6  7  2  0  0  0  0
  6  5  1  0  0  0  0
  8  6  1  0  0  0  0
  9  8  1  0  0  0  0
 10  8  1  0  0  0  0
 11 10  1  0  0  0  0
 12 11  2  0  0  0  0
 13 12  1  0  0  0  0
 14 13  2  0  0  0  0
 14 15  1  0  0  0  0
 15 16  2  0  0  0  0
 16 11  1  0  0  0  0
 17 15  1  0  0  0  0
 17 18  1  0  0  0  0
 19 14  1  0  0  0  0
 20 19  1  0  0  0  0
 21  1  1  0  0  0  0
 22 21  1  0  0  0  0
 23 25  1  0  0  0  0
 23 22  1  0  0  0  0
 24 28  1  0  0  0  0
 25 24  1  0  0  0  0
 26 25  2  0  0  0  0
 27 24  1  0  0  0  0
 28 32  1  0  0  0  0
 29 38  1  0  0  0  0
 30 29  1  0  0  0  0
 31 30  2  0  0  0  0
 32 33  2  0  0  0  0
 32 31  1  0  0  0  0
 33 34  1  0  0  0  0
 34 35  1  0  0  0  0
 34 29  2  0  0  0  0
 36 35  1  0  0  0  0
 38 37  1  0  0  0  0
M  END
>  <MODEL>
2

>  <REMARK>
 VINA RESULT:    -7.145      2.150      4.117
 INTER + INTRA:         -15.654
 INTER:                 -12.444
 INTRA:                  -3.211
 UNBOUND:                -1.826
  Name = CHEMBL333488
  19 active torsions:
  status: ('A' for Active; 'I' for Inactive)
    1  A    between atoms: C_1  and  O_2
    2  A    between atoms: O_2  and  C_3
    3  A    between atoms: C_6  and  C_7
    4  A    between atoms: C_7  and  N_8
    5  A    between atoms: C_9  and  C_11
    6  A    between atoms: C_11  and  C_12
    7  A    between atoms: C_12  and  C_13
    8  A    between atoms: C_13  and  C_14
    9  A    between atoms: C_14  and  C_15
   10  A    between atoms: C_15  and  C_16
   11  A    between atoms: C_16  and  C_17
   12  A    between atoms: C_17  and  C_18
   13  A    between atoms: C_18  and  C_19
   14  A    between atoms: N_21  and  C_22
   15  A    between atoms: C_22  and  C_23
   16  A    between atoms: C_26  and  O_27
   17  A    between atoms: O_27  and  C_28
   18  A    between atoms: C_29  and  O_30
   19  A    between atoms: C_33  and  O_34
                            x       y       z     vdW  Elec       q    Type
                         _______ _______ _______ _____ _____    ______ ____

>  <TORSDO>
F 17

>  <SCORE>
-7.145

>  <RMSD_LB>
2.150

>  <RMSD_UB>
4.117

$$$$
CHEMBL333488
 OpenBabel10172500363D

 38 39  0  0  0  0  0  0  0  0999 V2000
  136.4460  136.0190  150.3100 C   0  0  0  0  0  2  0  0  0  0  0  0
  135.5120  136.6350  149.2680 C   0  0  0  0  0  2  0  0  0  0  0  0
  136.1950  137.7510  148.4660 C   0  0  0  0  0  2  0  0  0  0  0  0
  137.5970  138.0490  148.9960 C   0  0  0  0  0  2  0  0  0  0  0  0
  138.7030  137.7100  148.0040 C   0  0  0  0  0  2  0  0  0  0  0  0
  139.7960  136.9120  148.6940 C   0  0  0  0  0  0  0  0  0  0  0  0
  139.6640  135.7230  148.9600 O   0  0  0  0  0  0  0  0  0  0  0  0
  140.9180  137.6480  149.0070 N   0  0  0  0  0  0  0  0  0  0  0  0
  140.9630  138.5890  148.7240 H   0  0  0  0  0  0  0  0  0  0  0  0
  142.0300  137.0850  149.7340 C   0  0  0  0  0  2  0  0  0  0  0  0
  142.0270  137.5090  151.1770 C   0  0  0  0  0  0  0  0  0  0  0  0
  143.1240  137.2170  152.0000 C   0  0  0  0  0  3  0  0  0  0  0  0
  143.1380  137.5950  153.3480 C   0  0  0  0  0  3  0  0  0  0  0  0
  142.0560  138.2860  153.8880 C   0  0  0  0  0  0  0  0  0  0  0  0
  140.9700  138.5880  153.0590 C   0  0  0  0  0  0  0  0  0  0  0  0
  140.9480  138.2140  151.7200 C   0  0  0  0  0  3  0  0  0  0  0  0
  139.8890  139.2670  153.5530 O   0  0  0  0  0  0  0  0  0  0  0  0
  139.9980  140.1250  153.9110 H   0  0  0  0  0  0  0  0  0  0  0  0
  141.9420  138.7150  155.1880 O   0  0  0  0  0  0  0  0  0  0  0  0
  142.7470  139.8350  155.5480 C   0  0  0  0  0  1  0  0  0  0  0  0
  136.2960  134.5050  150.4140 C   0  0  0  0  0  2  0  0  0  0  0  0
  135.0500  134.0710  149.6440 C   0  0  0  0  0  2  0  0  0  0  0  0
  134.0010  133.4340  150.5470 C   0  0  0  0  0  2  0  0  0  0  0  0
  134.0010  134.0490  152.8850 N   0  0  0  0  0  0  0  0  0  0  0  0
  133.5590  134.4020  151.6310 C   0  0  0  0  0  0  0  0  0  0  0  0
  132.8620  135.3870  151.4160 O   0  0  0  0  0  0  0  0  0  0  0  0
  134.5720  133.2540  152.9890 H   0  0  0  0  0  0  0  0  0  0  0  0
  133.6460  134.8210  154.0540 C   0  0  0  0  0  2  0  0  0  0  0  0
  137.1310  136.1780  156.2480 C   0  0  0  0  0  0  0  0  0  0  0  0
  137.0440  136.3660  154.8660 C   0  0  0  0  0  3  0  0  0  0  0  0
  135.9140  135.9370  154.1560 C   0  0  0  0  0  3  0  0  0  0  0  0
  134.8540  135.3040  154.8150 C   0  0  0  0  0  0  0  0  0  0  0  0
  134.9350  135.1220  156.2030 C   0  0  0  0  0  3  0  0  0  0  0  0
  136.0660  135.5490  156.9050 C   0  0  0  0  0  0  0  0  0  0  0  0
  136.1390  135.3430  158.2580 O   0  0  0  0  0  0  0  0  0  0  0  0
  136.5190  134.5540  158.5920 H   0  0  0  0  0  0  0  0  0  0  0  0
  139.0960  137.5060  156.4700 C   0  0  0  0  0  1  0  0  0  0  0  0
  138.1900  136.5630  157.0270 O   0  0  0  0  0  0  0  0  0  0  0  0
  1 21  1  0  0  0  0
  2  1  1  0  0  0  0
  3  4  1  0  0  0  0
  3  2  1  0  0  0  0
  5  6  1  0  0  0  0
  5  4  1  0  0  0  0
  6  7  2  0  0  0  0
  6  8  1  0  0  0  0
  8 10  1  0  0  0  0
  9  8  1  0  0  0  0
 10 11  1  0  0  0  0
 11 16  2  0  0  0  0
 11 12  1  0  0  0  0
 12 13  2  0  0  0  0
 13 14  1  0  0  0  0
 14 19  1  0  0  0  0
 15 17  1  0  0  0  0
 15 14  2  0  0  0  0
 16 15  1  0  0  0  0
 17 18  1  0  0  0  0
 19 20  1  0  0  0  0
 22 21  1  0  0  0  0
 22 23  1  0  0  0  0
 23 25  1  0  0  0  0
 24 27  1  0  0  0  0
 24 28  1  0  0  0  0
 25 24  1  0  0  0  0
 26 25  2  0  0  0  0
 28 32  1  0  0  0  0
 29 34  1  0  0  0  0
 29 38  1  0  0  0  0
 30 29  2  0  0  0  0
 31 32  2  0  0  0  0
 31 30  1  0  0  0  0
 32 33  1  0  0  0  0
 33 34  2  0  0  0  0
 34 35  1  0  0  0  0
 35 36  1  0  0  0  0
 37 38  1  0  0  0  0
M  END
>  <MODEL>
3

>  <REMARK>
 VINA RESULT:    -6.638      3.987      7.842
 INTER + INTRA:         -14.673
 INTER:                 -12.504
 INTRA:                  -2.169
 UNBOUND:                -1.826
  Name = CHEMBL333488
  19 active torsions:
  status: ('A' for Active; 'I' for Inactive)
    1  A    between atoms: C_1  and  O_2
    2  A    between atoms: O_2  and  C_3
    3  A    between atoms: C_6  and  C_7
    4  A    between atoms: C_7  and  N_8
    5  A    between atoms: C_9  and  C_11
    6  A    between atoms: C_11  and  C_12
    7  A    between atoms: C_12  and  C_13
    8  A    between atoms: C_13  and  C_14
    9  A    between atoms: C_14  and  C_15
   10  A    between atoms: C_15  and  C_16
   11  A    between atoms: C_16  and  C_17
   12  A    between atoms: C_17  and  C_18
   13  A    between atoms: C_18  and  C_19
   14  A    between atoms: N_21  and  C_22
   15  A    between atoms: C_22  and  C_23
   16  A    between atoms: C_26  and  O_27
   17  A    between atoms: O_27  and  C_28
   18  A    between atoms: C_29  and  O_30
   19  A    between atoms: C_33  and  O_34
                            x       y       z     vdW  Elec       q    Type
                         _______ _______ _______ _____ _____    ______ ____

>  <TORSDO>
F 17

>  <SCORE>
-6.638

>  <RMSD_LB>
3.987

>  <RMSD_UB>
7.842

$$$$
CHEMBL333488
 OpenBabel10172500363D

 38 39  0  0  0  0  0  0  0  0999 V2000
  142.3560  137.5570  150.3190 C   0  0  0  0  0  2  0  0  0  0  0  0
  141.6720  137.3980  151.6770 C   0  0  0  0  0  2  0  0  0  0  0  0
  142.3570  138.2280  152.7720 C   0  0  0  0  0  2  0  0  0  0  0  0
  141.8970  137.8090  154.1670 C   0  0  0  0  0  2  0  0  0  0  0  0
  141.1280  138.8990  154.9040 C   0  0  0  0  0  2  0  0  0  0  0  0
  139.6660  138.8780  154.4890 C   0  0  0  0  0  0  0  0  0  0  0  0
  139.0640  139.8990  154.1780 O   0  0  0  0  0  0  0  0  0  0  0  0
  139.0900  137.6270  154.5200 N   0  0  0  0  0  0  0  0  0  0  0  0
  139.6520  136.8500  154.7430 H   0  0  0  0  0  0  0  0  0  0  0  0
  137.6910  137.4160  154.2360 C   0  0  0  0  0  2  0  0  0  0  0  0
  136.9900  136.7170  155.3680 C   0  0  0  0  0  0  0  0  0  0  0  0
  137.4020  136.9290  156.6920 C   0  0  0  0  0  3  0  0  0  0  0  0
  136.7690  136.2810  157.7590 C   0  0  0  0  0  3  0  0  0  0  0  0
  135.7000  135.4220  157.5160 C   0  0  0  0  0  0  0  0  0  0  0  0
  135.2820  135.2260  156.1950 C   0  0  0  0  0  0  0  0  0  0  0  0
  135.9080  135.8630  155.1300 C   0  0  0  0  0  3  0  0  0  0  0  0
  134.2350  134.3890  155.9170 O   0  0  0  0  0  0  0  0  0  0  0  0
  133.4120  134.7440  155.6450 H   0  0  0  0  0  0  0  0  0  0  0  0
  134.9920  134.7290  158.4670 O   0  0  0  0  0  0  0  0  0  0  0  0
  134.3290  135.5190  159.4510 C   0  0  0  0  0  1  0  0  0  0  0  0
  143.8700  137.6900  150.4340 C   0  0  0  0  0  2  0  0  0  0  0  0
  144.4090  138.3780  149.1810 C   0  0  0  0  0  2  0  0  0  0  0  0
  144.0180  139.8490  149.1120 C   0  0  0  0  0  2  0  0  0  0  0  0
  146.0410  140.7540  150.0790 N   0  0  0  0  0  0  0  0  0  0  0  0
  144.6780  140.6380  150.2290 C   0  0  0  0  0  0  0  0  0  0  0  0
  144.0640  141.1080  151.1810 O   0  0  0  0  0  0  0  0  0  0  0  0
  146.4720  140.3670  149.2830 H   0  0  0  0  0  0  0  0  0  0  0  0
  146.8530  141.4310  151.0640 C   0  0  0  0  0  2  0  0  0  0  0  0
  148.0700  138.8180  154.3020 C   0  0  0  0  0  0  0  0  0  0  0  0
  147.9200  140.1920  154.5150 C   0  0  0  0  0  3  0  0  0  0  0  0
  147.5170  141.0360  153.4720 C   0  0  0  0  0  3  0  0  0  0  0  0
  147.2650  140.5240  152.1940 C   0  0  0  0  0  0  0  0  0  0  0  0
  147.4070  139.1460  151.9800 C   0  0  0  0  0  3  0  0  0  0  0  0
  147.8120  138.3090  153.0230 C   0  0  0  0  0  0  0  0  0  0  0  0
  147.9680  136.9660  152.7910 O   0  0  0  0  0  0  0  0  0  0  0  0
  148.7480  136.5300  153.0700 H   0  0  0  0  0  0  0  0  0  0  0  0
  148.0260  138.1520  156.5880 C   0  0  0  0  0  1  0  0  0  0  0  0
  148.4570  137.9140  155.2560 O   0  0  0  0  0  0  0  0  0  0  0  0
  1 21  1  0  0  0  0
  1  2  1  0  0  0  0
  2  3  1  0  0  0  0
  3  4  1  0  0  0  0
  4  5  1  0  0  0  0
  6  8  1  0  0  0  0
  6  5  1  0  0  0  0
  7  6  2  0  0  0  0
  8  9  1  0  0  0  0
 10  8  1  0  0  0  0
 10 11  1  0  0  0  0
 11 12  1  0  0  0  0
 12 13  2  0  0  0  0
 14 13  1  0  0  0  0
 14 19  1  0  0  0  0
 15 14  2  0  0  0  0
 16 11  2  0  0  0  0
 16 15  1  0  0  0  0
 17 15  1  0  0  0  0
 18 17  1  0  0  0  0
 19 20  1  0  0  0  0
 22 21  1  0  0  0  0
 23 22  1  0  0  0  0
 23 25  1  0  0  0  0
 24 25  1  0  0  0  0
 24 28  1  0  0  0  0
 25 26  2  0  0  0  0
 27 24  1  0  0  0  0
 28 32  1  0  0  0  0
 29 30  1  0  0  0  0
 29 38  1  0  0  0  0
 31 30  2  0  0  0  0
 32 31  1  0  0  0  0
 33 32  2  0  0  0  0
 33 34  1  0  0  0  0
 34 29  2  0  0  0  0
 35 34  1  0  0  0  0
 35 36  1  0  0  0  0
 38 37  1  0  0  0  0
M  END
>  <MODEL>
4

>  <REMARK>
 VINA RESULT:    -6.490      2.415      9.407
 INTER + INTRA:         -14.388
 INTER:                 -12.633
 INTRA:                  -1.755
 UNBOUND:                -1.826
  Name = CHEMBL333488
  19 active torsions:
  status: ('A' for Active; 'I' for Inactive)
    1  A    between atoms: C_1  and  O_2
    2  A    between atoms: O_2  and  C_3
    3  A    between atoms: C_6  and  C_7
    4  A    between atoms: C_7  and  N_8
    5  A    between atoms: C_9  and  C_11
    6  A    between atoms: C_11  and  C_12
    7  A    between atoms: C_12  and  C_13
    8  A    between atoms: C_13  and  C_14
    9  A    between atoms: C_14  and  C_15
   10  A    between atoms: C_15  and  C_16
   11  A    between atoms: C_16  and  C_17
   12  A    between atoms: C_17  and  C_18
   13  A    between atoms: C_18  and  C_19
   14  A    between atoms: N_21  and  C_22
   15  A    between atoms: C_22  and  C_23
   16  A    between atoms: C_26  and  O_27
   17  A    between atoms: O_27  and  C_28
   18  A    between atoms: C_29  and  O_30
   19  A    between atoms: C_33  and  O_34
                            x       y       z     vdW  Elec       q    Type
                         _______ _______ _______ _____ _____    ______ ____

>  <TORSDO>
F 17

>  <SCORE>
-6.490

>  <RMSD_LB>
2.415

>  <RMSD_UB>
9.407

$$$$
CHEMBL333488
 OpenBabel10172500363D

 38 39  0  0  0  0  0  0  0  0999 V2000
  144.6750  139.4950  150.5440 C   0  0  0  0  0  2  0  0  0  0  0  0
  145.7580  139.7440  149.4940 C   0  0  0  0  0  2  0  0  0  0  0  0
  146.5380  141.0390  149.7610 C   0  0  0  0  0  2  0  0  0  0  0  0
  147.6190  140.8360  150.8210 C   0  0  0  0  0  2  0  0  0  0  0  0
  147.6270  141.9200  151.8920 C   0  0  0  0  0  2  0  0  0  0  0  0
  146.9980  141.3940  153.1710 C   0  0  0  0  0  0  0  0  0  0  0  0
  146.4510  142.1360  153.9800 O   0  0  0  0  0  0  0  0  0  0  0  0
  147.1220  140.0330  153.3410 N   0  0  0  0  0  0  0  0  0  0  0  0
  147.5410  139.5010  152.6270 H   0  0  0  0  0  0  0  0  0  0  0  0
  146.6580  139.3590  154.5300 C   0  0  0  0  0  2  0  0  0  0  0  0
  145.2060  138.9810  154.4290 C   0  0  0  0  0  0  0  0  0  0  0  0
  144.8340  137.7720  153.8240 C   0  0  0  0  0  3  0  0  0  0  0  0
  143.4870  137.4040  153.7110 C   0  0  0  0  0  3  0  0  0  0  0  0
  142.4940  138.2380  154.2180 C   0  0  0  0  0  0  0  0  0  0  0  0
  142.8710  139.4360  154.8340 C   0  0  0  0  0  0  0  0  0  0  0  0
  144.2070  139.8090  154.9480 C   0  0  0  0  0  3  0  0  0  0  0  0
  141.9230  140.2800  155.3460 O   0  0  0  0  0  0  0  0  0  0  0  0
  142.0610  140.6920  156.1760 H   0  0  0  0  0  0  0  0  0  0  0  0
  141.1420  137.9980  154.1760 O   0  0  0  0  0  0  0  0  0  0  0  0
  140.5370  137.6160  155.4090 C   0  0  0  0  0  1  0  0  0  0  0  0
  143.4030  140.2930  150.2790 C   0  0  0  0  0  2  0  0  0  0  0  0
  142.2090  139.5400  150.8630 C   0  0  0  0  0  2  0  0  0  0  0  0
  140.9200  139.8090  150.0960 C   0  0  0  0  0  2  0  0  0  0  0  0
  139.6030  138.2730  151.4200 N   0  0  0  0  0  0  0  0  0  0  0  0
  139.7070  139.5720  150.9780 C   0  0  0  0  0  0  0  0  0  0  0  0
  138.8880  140.4430  151.2530 O   0  0  0  0  0  0  0  0  0  0  0  0
  140.3030  137.6250  151.1760 H   0  0  0  0  0  0  0  0  0  0  0  0
  138.4910  137.8390  152.2330 C   0  0  0  0  0  2  0  0  0  0  0  0
  135.8180  135.1750  150.0990 C   0  0  0  0  0  0  0  0  0  0  0  0
  135.5030  135.6150  151.3880 C   0  0  0  0  0  3  0  0  0  0  0  0
  136.3610  136.4840  152.0760 C   0  0  0  0  0  3  0  0  0  0  0  0
  137.5550  136.9220  151.4900 C   0  0  0  0  0  0  0  0  0  0  0  0
  137.8680  136.4900  150.1940 C   0  0  0  0  0  3  0  0  0  0  0  0
  137.0100  135.6200  149.5150 C   0  0  0  0  0  0  0  0  0  0  0  0
  137.3430  135.1890  148.2560 O   0  0  0  0  0  0  0  0  0  0  0  0
  136.7370  134.6730  147.7620 H   0  0  0  0  0  0  0  0  0  0  0  0
  134.4040  133.2600  150.0300 C   0  0  0  0  0  1  0  0  0  0  0  0
  135.0450  134.3290  149.3490 O   0  0  0  0  0  0  0  0  0  0  0  0
  2  3  1  0  0  0  0
  2  1  1  0  0  0  0
  3  4  1  0  0  0  0
  4  5  1  0  0  0  0
  5  6  1  0  0  0  0
  6  8  1  0  0  0  0
  6  7  2  0  0  0  0
  8 10  1  0  0  0  0
  9  8  1  0  0  0  0
 11 10  1  0  0  0  0
 11 16  1  0  0  0  0
 12 11  2  0  0  0  0
 13 12  1  0  0  0  0
 13 14  2  0  0  0  0
 14 15  1  0  0  0  0
 15 16  2  0  0  0  0
 15 17  1  0  0  0  0
 17 18  1  0  0  0  0
 19 14  1  0  0  0  0
 19 20  1  0  0  0  0
 21  1  1  0  0  0  0
 21 22  1  0  0  0  0
 23 22  1  0  0  0  0
 23 25  1  0  0  0  0
 24 28  1  0  0  0  0
 25 26  2  0  0  0  0
 25 24  1  0  0  0  0
 27 24  1  0  0  0  0
 29 30  1  0  0  0  0
 30 31  2  0  0  0  0
 32 31  1  0  0  0  0
 32 28  1  0  0  0  0
 33 32  2  0  0  0  0
 34 29  2  0  0  0  0
 34 33  1  0  0  0  0
 35 34  1  0  0  0  0
 36 35  1  0  0  0  0
 38 37  1  0  0  0  0
 38 29  1  0  0  0  0
M  END
>  <MODEL>
5

>  <REMARK>
 VINA RESULT:    -6.407      3.256      4.882
 INTER + INTRA:         -14.226
 INTER:                 -12.143
 INTRA:                  -2.084
 UNBOUND:                -1.826
  Name = CHEMBL333488
  19 active torsions:
  status: ('A' for Active; 'I' for Inactive)
    1  A    between atoms: C_1  and  O_2
    2  A    between atoms: O_2  and  C_3
    3  A    between atoms: C_6  and  C_7
    4  A    between atoms: C_7  and  N_8
    5  A    between atoms: C_9  and  C_11
    6  A    between atoms: C_11  and  C_12
    7  A    between atoms: C_12  and  C_13
    8  A    between atoms: C_13  and  C_14
    9  A    between atoms: C_14  and  C_15
   10  A    between atoms: C_15  and  C_16
   11  A    between atoms: C_16  and  C_17
   12  A    between atoms: C_17  and  C_18
   13  A    between atoms: C_18  and  C_19
   14  A    between atoms: N_21  and  C_22
   15  A    between atoms: C_22  and  C_23
   16  A    between atoms: C_26  and  O_27
   17  A    between atoms: O_27  and  C_28
   18  A    between atoms: C_29  and  O_30
   19  A    between atoms: C_33  and  O_34
                            x       y       z     vdW  Elec       q    Type
                         _______ _______ _______ _____ _____    ______ ____

>  <TORSDO>
F 17

>  <SCORE>
-6.407

>  <RMSD_LB>
3.256

>  <RMSD_UB>
4.882

$$$$
CHEMBL333488
 OpenBabel10172500363D

 38 39  0  0  0  0  0  0  0  0999 V2000
  145.8730  136.6730  152.4150 C   0  0  0  0  0  2  0  0  0  0  0  0
  145.8250  136.7320  153.9420 C   0  0  0  0  0  2  0  0  0  0  0  0
  147.2000  137.0320  154.5540 C   0  0  0  0  0  2  0  0  0  0  0  0
  147.1500  138.2420  155.4870 C   0  0  0  0  0  2  0  0  0  0  0  0
  147.7430  139.5040  154.8730 C   0  0  0  0  0  2  0  0  0  0  0  0
  146.6390  140.3660  154.2830 C   0  0  0  0  0  0  0  0  0  0  0  0
  145.4530  140.1210  154.4720 O   0  0  0  0  0  0  0  0  0  0  0  0
  147.0930  141.4120  153.5110 N   0  0  0  0  0  0  0  0  0  0  0  0
  148.0630  141.5640  153.4390 H   0  0  0  0  0  0  0  0  0  0  0  0
  146.1950  142.2930  152.8020 C   0  0  0  0  0  2  0  0  0  0  0  0
  145.9100  141.8010  151.4110 C   0  0  0  0  0  0  0  0  0  0  0  0
  146.8060  142.0750  150.3680 C   0  0  0  0  0  3  0  0  0  0  0  0
  146.5550  141.6340  149.0630 C   0  0  0  0  0  3  0  0  0  0  0  0
  145.4070  140.8960  148.7870 C   0  0  0  0  0  0  0  0  0  0  0  0
  144.5230  140.6110  149.8340 C   0  0  0  0  0  0  0  0  0  0  0  0
  144.7650  141.0480  151.1320 C   0  0  0  0  0  3  0  0  0  0  0  0
  143.3850  139.8870  149.6020 O   0  0  0  0  0  0  0  0  0  0  0  0
  142.6010  140.3210  149.3300 H   0  0  0  0  0  0  0  0  0  0  0  0
  145.0430  140.4020  147.5580 O   0  0  0  0  0  0  0  0  0  0  0  0
  146.1120  140.0950  146.6680 C   0  0  0  0  0  1  0  0  0  0  0  0
  147.2970  136.6900  151.8690 C   0  0  0  0  0  2  0  0  0  0  0  0
  147.2570  136.4610  150.3600 C   0  0  0  0  0  2  0  0  0  0  0  0
  146.2760  137.3900  149.6560 C   0  0  0  0  0  2  0  0  0  0  0  0
  144.3640  137.3890  148.1760 N   0  0  0  0  0  0  0  0  0  0  0  0
  145.2370  136.5960  148.8850 C   0  0  0  0  0  0  0  0  0  0  0  0
  145.1660  135.3720  148.9070 O   0  0  0  0  0  0  0  0  0  0  0  0
  144.4840  138.3660  148.1870 H   0  0  0  0  0  0  0  0  0  0  0  0
  143.2760  136.8200  147.4140 C   0  0  0  0  0  2  0  0  0  0  0  0
  139.3890  137.6290  149.1560 C   0  0  0  0  0  0  0  0  0  0  0  0
  140.3620  136.9340  149.8810 C   0  0  0  0  0  3  0  0  0  0  0  0
  141.6220  136.6800  149.3230 C   0  0  0  0  0  3  0  0  0  0  0  0
  141.9300  137.1090  148.0270 C   0  0  0  0  0  0  0  0  0  0  0  0
  140.9590  137.8140  147.3020 C   0  0  0  0  0  3  0  0  0  0  0  0
  139.7030  138.0610  147.8620 C   0  0  0  0  0  0  0  0  0  0  0  0
  138.7570  138.7330  147.1300 O   0  0  0  0  0  0  0  0  0  0  0  0
  139.0120  139.4430  146.5750 H   0  0  0  0  0  0  0  0  0  0  0  0
  137.8470  137.6150  150.9710 C   0  0  0  0  0  1  0  0  0  0  0  0
  138.1330  137.9260  149.6150 O   0  0  0  0  0  0  0  0  0  0  0  0
  1  2  1  0  0  0  0
  2  3  1  0  0  0  0
  3  4  1  0  0  0  0
  5  4  1  0  0  0  0
  6  7  2  0  0  0  0
  6  5  1  0  0  0  0
  8  6  1  0  0  0  0
  9  8  1  0  0  0  0
 10  8  1  0  0  0  0
 11 10  1  0  0  0  0
 12 11  2  0  0  0  0
 13 12  1  0  0  0  0
 14 13  2  0  0  0  0
 14 15  1  0  0  0  0
 15 16  2  0  0  0  0
 16 11  1  0  0  0  0
 17 15  1  0  0  0  0
 18 17  1  0  0  0  0
 19 14  1  0  0  0  0
 20 19  1  0  0  0  0
 21  1  1  0  0  0  0
 22 21  1  0  0  0  0
 23 22  1  0  0  0  0
 24 27  1  0  0  0  0
 24 25  1  0  0  0  0
 25 26  2  0  0  0  0
 25 23  1  0  0  0  0
 28 32  1  0  0  0  0
 28 24  1  0  0  0  0
 29 38  1  0  0  0  0
 29 30  1  0  0  0  0
 31 30  2  0  0  0  0
 32 31  1  0  0  0  0
 33 34  1  0  0  0  0
 33 32  2  0  0  0  0
 34 29  2  0  0  0  0
 35 34  1  0  0  0  0
 36 35  1  0  0  0  0
 38 37  1  0  0  0  0
M  END
>  <MODEL>
6

>  <REMARK>
 VINA RESULT:    -6.400      3.316      5.447
 INTER + INTRA:         -14.212
 INTER:                 -11.260
 INTRA:                  -2.952
 UNBOUND:                -1.826
  Name = CHEMBL333488
  19 active torsions:
  status: ('A' for Active; 'I' for Inactive)
    1  A    between atoms: C_1  and  O_2
    2  A    between atoms: O_2  and  C_3
    3  A    between atoms: C_6  and  C_7
    4  A    between atoms: C_7  and  N_8
    5  A    between atoms: C_9  and  C_11
    6  A    between atoms: C_11  and  C_12
    7  A    between atoms: C_12  and  C_13
    8  A    between atoms: C_13  and  C_14
    9  A    between atoms: C_14  and  C_15
   10  A    between atoms: C_15  and  C_16
   11  A    between atoms: C_16  and  C_17
   12  A    between atoms: C_17  and  C_18
   13  A    between atoms: C_18  and  C_19
   14  A    between atoms: N_21  and  C_22
   15  A    between atoms: C_22  and  C_23
   16  A    between atoms: C_26  and  O_27
   17  A    between atoms: O_27  and  C_28
   18  A    between atoms: C_29  and  O_30
   19  A    between atoms: C_33  and  O_34
                            x       y       z     vdW  Elec       q    Type
                         _______ _______ _______ _____ _____    ______ ____

>  <TORSDO>
F 17

>  <SCORE>
-6.400

>  <RMSD_LB>
3.316

>  <RMSD_UB>
5.447

$$$$
CHEMBL333488
 OpenBabel10172500363D

 38 39  0  0  0  0  0  0  0  0999 V2000
  136.5580  136.2340  150.1350 C   0  0  0  0  0  2  0  0  0  0  0  0
  135.9990  136.5490  148.7470 C   0  0  0  0  0  2  0  0  0  0  0  0
  136.7650  137.6870  148.0590 C   0  0  0  0  0  2  0  0  0  0  0  0
  137.0750  138.8250  149.0300 C   0  0  0  0  0  2  0  0  0  0  0  0
  138.5140  139.3180  148.9440 C   0  0  0  0  0  2  0  0  0  0  0  0
  139.1380  139.3510  150.3300 C   0  0  0  0  0  0  0  0  0  0  0  0
  139.2750  140.3960  150.9560 O   0  0  0  0  0  0  0  0  0  0  0  0
  139.5480  138.1200  150.7910 N   0  0  0  0  0  0  0  0  0  0  0  0
  139.3660  137.3220  150.2440 H   0  0  0  0  0  0  0  0  0  0  0  0
  140.2340  137.9590  152.0510 C   0  0  0  0  0  2  0  0  0  0  0  0
  141.7090  137.7350  151.8600 C   0  0  0  0  0  0  0  0  0  0  0  0
  142.5450  137.5570  152.9720 C   0  0  0  0  0  3  0  0  0  0  0  0
  143.9220  137.3570  152.8170 C   0  0  0  0  0  3  0  0  0  0  0  0
  144.4800  137.3170  151.5420 C   0  0  0  0  0  0  0  0  0  0  0  0
  143.6400  137.4810  150.4350 C   0  0  0  0  0  0  0  0  0  0  0  0
  142.2710  137.6830  150.5810 C   0  0  0  0  0  3  0  0  0  0  0  0
  144.1510  137.4470  149.1660 O   0  0  0  0  0  0  0  0  0  0  0  0
  144.5920  136.6800  148.8590 H   0  0  0  0  0  0  0  0  0  0  0  0
  145.8080  137.1270  151.2500 O   0  0  0  0  0  0  0  0  0  0  0  0
  146.3100  135.8090  151.4560 C   0  0  0  0  0  1  0  0  0  0  0  0
  136.2870  134.7970  150.5680 C   0  0  0  0  0  2  0  0  0  0  0  0
  135.2190  134.1930  149.6580 C   0  0  0  0  0  2  0  0  0  0  0  0
  134.0060  133.6960  150.4360 C   0  0  0  0  0  2  0  0  0  0  0  0
  133.9140  134.2010  152.7980 N   0  0  0  0  0  0  0  0  0  0  0  0
  133.6320  134.6720  151.5370 C   0  0  0  0  0  0  0  0  0  0  0  0
  133.1110  135.7630  151.3270 O   0  0  0  0  0  0  0  0  0  0  0  0
  134.3470  133.3230  152.8980 H   0  0  0  0  0  0  0  0  0  0  0  0
  133.5890  134.9670  153.9800 C   0  0  0  0  0  2  0  0  0  0  0  0
  137.1160  136.0820  156.2390 C   0  0  0  0  0  0  0  0  0  0  0  0
  137.0450  136.3300  154.8650 C   0  0  0  0  0  3  0  0  0  0  0  0
  135.9010  135.9790  154.1350 C   0  0  0  0  0  3  0  0  0  0  0  0
  134.8110  135.3650  154.7640 C   0  0  0  0  0  0  0  0  0  0  0  0
  134.8780  135.1240  156.1430 C   0  0  0  0  0  3  0  0  0  0  0  0
  136.0220  135.4720  156.8660 C   0  0  0  0  0  0  0  0  0  0  0  0
  136.0800  135.2080  158.2100 O   0  0  0  0  0  0  0  0  0  0  0  0
  135.8880  134.3480  158.5270 H   0  0  0  0  0  0  0  0  0  0  0  0
  138.4340  137.7640  157.2920 C   0  0  0  0  0  1  0  0  0  0  0  0
  138.1880  136.3880  157.0360 O   0  0  0  0  0  0  0  0  0  0  0  0
  1 21  1  0  0  0  0
  2  1  1  0  0  0  0
  3  2  1  0  0  0  0
  3  4  1  0  0  0  0
  5  4  1  0  0  0  0
  5  6  1  0  0  0  0
  6  8  1  0  0  0  0
  6  7  2  0  0  0  0
  8 10  1  0  0  0  0
  9  8  1  0  0  0  0
 11 10  1  0  0  0  0
 11 12  1  0  0  0  0
 13 12  2  0  0  0  0
 14 13  1  0  0  0  0
 15 16  1  0  0  0  0
 15 14  2  0  0  0  0
 16 11  2  0  0  0  0
 17 15  1  0  0  0  0
 18 17  1  0  0  0  0
 19 20  1  0  0  0  0
 19 14  1  0  0  0  0
 22 23  1  0  0  0  0
 22 21  1  0  0  0  0
 23 25  1  0  0  0  0
 24 27  1  0  0  0  0
 24 28  1  0  0  0  0
 25 24  1  0  0  0  0
 26 25  2  0  0  0  0
 28 32  1  0  0  0  0
 29 34  1  0  0  0  0
 29 38  1  0  0  0  0
 30 29  2  0  0  0  0
 31 32  2  0  0  0  0
 31 30  1  0  0  0  0
 32 33  1  0  0  0  0
 33 34  2  0  0  0  0
 34 35  1  0  0  0  0
 35 36  1  0  0  0  0
 38 37  1  0  0  0  0
M  END
>  <MODEL>
7

>  <REMARK>
 VINA RESULT:    -6.396      3.682      7.308
 INTER + INTRA:         -14.205
 INTER:                 -12.371
 INTRA:                  -1.834
 UNBOUND:                -1.826
  Name = CHEMBL333488
  19 active torsions:
  status: ('A' for Active; 'I' for Inactive)
    1  A    between atoms: C_1  and  O_2
    2  A    between atoms: O_2  and  C_3
    3  A    between atoms: C_6  and  C_7
    4  A    between atoms: C_7  and  N_8
    5  A    between atoms: C_9  and  C_11
    6  A    between atoms: C_11  and  C_12
    7  A    between atoms: C_12  and  C_13
    8  A    between atoms: C_13  and  C_14
    9  A    between atoms: C_14  and  C_15
   10  A    between atoms: C_15  and  C_16
   11  A    between atoms: C_16  and  C_17
   12  A    between atoms: C_17  and  C_18
   13  A    between atoms: C_18  and  C_19
   14  A    between atoms: N_21  and  C_22
   15  A    between atoms: C_22  and  C_23
   16  A    between atoms: C_26  and  O_27
   17  A    between atoms: O_27  and  C_28
   18  A    between atoms: C_29  and  O_30
   19  A    between atoms: C_33  and  O_34
                            x       y       z     vdW  Elec       q    Type
                         _______ _______ _______ _____ _____    ______ ____

>  <TORSDO>
F 17

>  <SCORE>
-6.396

>  <RMSD_LB>
3.682

>  <RMSD_UB>
7.308

$$$$
CHEMBL333488
 OpenBabel10172500363D

 38 39  0  0  0  0  0  0  0  0999 V2000
  141.7360  138.4110  148.4560 C   0  0  0  0  0  2  0  0  0  0  0  0
  142.8270  139.4080  148.8460 C   0  0  0  0  0  2  0  0  0  0  0  0
  144.2220  138.9410  148.4100 C   0  0  0  0  0  2  0  0  0  0  0  0
  145.3110  139.9060  148.8780 C   0  0  0  0  0  2  0  0  0  0  0  0
  146.6380  139.2200  149.1790 C   0  0  0  0  0  2  0  0  0  0  0  0
  146.5690  138.5190  150.5260 C   0  0  0  0  0  0  0  0  0  0  0  0
  146.9020  137.3480  150.6660 O   0  0  0  0  0  0  0  0  0  0  0  0
  146.0810  139.3060  151.5460 N   0  0  0  0  0  0  0  0  0  0  0  0
  145.8720  140.2490  151.3600 H   0  0  0  0  0  0  0  0  0  0  0  0
  145.8670  138.7940  152.8780 C   0  0  0  0  0  2  0  0  0  0  0  0
  144.4060  138.6050  153.1770 C   0  0  0  0  0  0  0  0  0  0  0  0
  143.6760  137.6020  152.5220 C   0  0  0  0  0  3  0  0  0  0  0  0
  142.3120  137.4160  152.7790 C   0  0  0  0  0  3  0  0  0  0  0  0
  141.6630  138.2230  153.7100 C   0  0  0  0  0  0  0  0  0  0  0  0
  142.3980  139.2120  154.3710 C   0  0  0  0  0  0  0  0  0  0  0  0
  143.7530  139.4050  154.1200 C   0  0  0  0  0  3  0  0  0  0  0  0
  141.7950  140.0240  155.2930 O   0  0  0  0  0  0  0  0  0  0  0  0
  141.7750  140.9510  155.1600 H   0  0  0  0  0  0  0  0  0  0  0  0
  140.3360  138.1450  154.0560 O   0  0  0  0  0  0  0  0  0  0  0  0
  139.4020  138.3570  153.0000 C   0  0  0  0  0  1  0  0  0  0  0  0
  141.7560  137.1500  149.3130 C   0  0  0  0  0  2  0  0  0  0  0  0
  140.3210  136.7510  149.6510 C   0  0  0  0  0  2  0  0  0  0  0  0
  139.7530  135.7340  148.6690 C   0  0  0  0  0  2  0  0  0  0  0  0
  137.6200  134.5980  148.7330 N   0  0  0  0  0  0  0  0  0  0  0  0
  138.2380  135.8210  148.6150 C   0  0  0  0  0  0  0  0  0  0  0  0
  137.6250  136.8720  148.4600 O   0  0  0  0  0  0  0  0  0  0  0  0
  138.1690  133.7920  148.8710 H   0  0  0  0  0  0  0  0  0  0  0  0
  136.1820  134.4690  148.6590 C   0  0  0  0  0  2  0  0  0  0  0  0
  134.3020  134.4500  152.5650 C   0  0  0  0  0  0  0  0  0  0  0  0
  135.6950  134.4420  152.4470 C   0  0  0  0  0  3  0  0  0  0  0  0
  136.3040  134.4580  151.1850 C   0  0  0  0  0  3  0  0  0  0  0  0
  135.5320  134.4740  150.0180 C   0  0  0  0  0  0  0  0  0  0  0  0
  134.1350  134.4900  150.1340 C   0  0  0  0  0  3  0  0  0  0  0  0
  133.5320  134.4710  151.3950 C   0  0  0  0  0  0  0  0  0  0  0  0
  132.1640  134.4650  151.4900 O   0  0  0  0  0  0  0  0  0  0  0  0
  131.7010  135.2680  151.6270 H   0  0  0  0  0  0  0  0  0  0  0  0
  133.7580  135.5700  154.5960 C   0  0  0  0  0  1  0  0  0  0  0  0
  133.6150  134.4370  153.7510 O   0  0  0  0  0  0  0  0  0  0  0  0
  1  2  1  0  0  0  0
  1 21  1  0  0  0  0
  3  2  1  0  0  0  0
  3  4  1  0  0  0  0
  4  5  1  0  0  0  0
  5  6  1  0  0  0  0
  6  7  2  0  0  0  0
  6  8  1  0  0  0  0
  8 10  1  0  0  0  0
  9  8  1  0  0  0  0
 10 11  1  0  0  0  0
 11 16  1  0  0  0  0
 12 13  1  0  0  0  0
 12 11  2  0  0  0  0
 13 14  2  0  0  0  0
 14 19  1  0  0  0  0
 14 15  1  0  0  0  0
 15 17  1  0  0  0  0
 16 15  2  0  0  0  0
 18 17  1  0  0  0  0
 20 19  1  0  0  0  0
 21 22  1  0  0  0  0
 23 22  1  0  0  0  0
 24 27  1  0  0  0  0
 25 23  1  0  0  0  0
 25 24  1  0  0  0  0
 26 25  2  0  0  0  0
 28 24  1  0  0  0  0
 28 32  1  0  0  0  0
 29 38  1  0  0  0  0
 30 29  1  0  0  0  0
 31 30  2  0  0  0  0
 32 33  2  0  0  0  0
 32 31  1  0  0  0  0
 33 34  1  0  0  0  0
 34 35  1  0  0  0  0
 34 29  2  0  0  0  0
 35 36  1  0  0  0  0
 38 37  1  0  0  0  0
M  END
>  <MODEL>
8

>  <REMARK>
 VINA RESULT:    -6.375      3.834      5.559
 INTER + INTRA:         -14.164
 INTER:                 -12.285
 INTRA:                  -1.879
 UNBOUND:                -1.826
  Name = CHEMBL333488
  19 active torsions:
  status: ('A' for Active; 'I' for Inactive)
    1  A    between atoms: C_1  and  O_2
    2  A    between atoms: O_2  and  C_3
    3  A    between atoms: C_6  and  C_7
    4  A    between atoms: C_7  and  N_8
    5  A    between atoms: C_9  and  C_11
    6  A    between atoms: C_11  and  C_12
    7  A    between atoms: C_12  and  C_13
    8  A    between atoms: C_13  and  C_14
    9  A    between atoms: C_14  and  C_15
   10  A    between atoms: C_15  and  C_16
   11  A    between atoms: C_16  and  C_17
   12  A    between atoms: C_17  and  C_18
   13  A    between atoms: C_18  and  C_19
   14  A    between atoms: N_21  and  C_22
   15  A    between atoms: C_22  and  C_23
   16  A    between atoms: C_26  and  O_27
   17  A    between atoms: O_27  and  C_28
   18  A    between atoms: C_29  and  O_30
   19  A    between atoms: C_33  and  O_34
                            x       y       z     vdW  Elec       q    Type
                         _______ _______ _______ _____ _____    ______ ____

>  <TORSDO>
F 17

>  <SCORE>
-6.375

>  <RMSD_LB>
3.834

>  <RMSD_UB>
5.559

$$$$
CHEMBL333488
 OpenBabel10172500363D

 38 39  0  0  0  0  0  0  0  0999 V2000
  138.9750  135.1710  144.2210 C   0  0  0  0  0  2  0  0  0  0  0  0
  137.9390  135.2390  145.3440 C   0  0  0  0  0  2  0  0  0  0  0  0
  138.3740  136.1770  146.4780 C   0  0  0  0  0  2  0  0  0  0  0  0
  138.8900  135.3990  147.6870 C   0  0  0  0  0  2  0  0  0  0  0  0
  140.0860  136.0560  148.3640 C   0  0  0  0  0  2  0  0  0  0  0  0
  139.6800  136.6050  149.7220 C   0  0  0  0  0  0  0  0  0  0  0  0
  138.5060  136.6940  150.0620 O   0  0  0  0  0  0  0  0  0  0  0  0
  140.7390  137.0060  150.5070 N   0  0  0  0  0  0  0  0  0  0  0  0
  141.6560  136.8650  150.1770 H   0  0  0  0  0  0  0  0  0  0  0  0
  140.5510  137.6260  151.7960 C   0  0  0  0  0  2  0  0  0  0  0  0
  141.8530  137.8090  152.5240 C   0  0  0  0  0  0  0  0  0  0  0  0
  143.0310  137.2430  152.0160 C   0  0  0  0  0  3  0  0  0  0  0  0
  144.2530  137.3940  152.6840 C   0  0  0  0  0  3  0  0  0  0  0  0
  144.3140  138.1300  153.8640 C   0  0  0  0  0  0  0  0  0  0  0  0
  143.1390  138.7050  154.3590 C   0  0  0  0  0  0  0  0  0  0  0  0
  141.9220  138.5570  153.7040 C   0  0  0  0  0  3  0  0  0  0  0  0
  143.1600  139.4360  155.5170 O   0  0  0  0  0  0  0  0  0  0  0  0
  143.9530  139.5110  156.0090 H   0  0  0  0  0  0  0  0  0  0  0  0
  145.4430  138.3560  154.6140 O   0  0  0  0  0  0  0  0  0  0  0  0
  146.6820  138.2890  153.9120 C   0  0  0  0  0  1  0  0  0  0  0  0
  138.4080  134.5900  142.9310 C   0  0  0  0  0  2  0  0  0  0  0  0
  136.9950  134.0720  143.1930 C   0  0  0  0  0  2  0  0  0  0  0  0
  136.8910  132.5600  143.0370 C   0  0  0  0  0  2  0  0  0  0  0  0
  136.4370  132.4520  145.4100 N   0  0  0  0  0  0  0  0  0  0  0  0
  136.0900  131.9530  144.1750 C   0  0  0  0  0  0  0  0  0  0  0  0
  135.2340  131.0890  144.0160 O   0  0  0  0  0  0  0  0  0  0  0  0
  137.1220  133.1560  145.4690 H   0  0  0  0  0  0  0  0  0  0  0  0
  135.8180  131.9650  146.6210 C   0  0  0  0  0  2  0  0  0  0  0  0
  133.9920  135.1570  148.9170 C   0  0  0  0  0  0  0  0  0  0  0  0
  133.3040  134.5620  147.8560 C   0  0  0  0  0  3  0  0  0  0  0  0
  133.8890  133.5230  147.1190 C   0  0  0  0  0  3  0  0  0  0  0  0
  135.1770  133.0660  147.4240 C   0  0  0  0  0  0  0  0  0  0  0  0
  135.8650  133.6560  148.4940 C   0  0  0  0  0  3  0  0  0  0  0  0
  135.2780  134.6940  149.2230 C   0  0  0  0  0  0  0  0  0  0  0  0
  135.9740  135.2750  150.2520 O   0  0  0  0  0  0  0  0  0  0  0  0
  136.8770  135.0630  150.3850 H   0  0  0  0  0  0  0  0  0  0  0  0
  132.5630  137.0540  149.0980 C   0  0  0  0  0  1  0  0  0  0  0  0
  133.5050  136.1750  149.6950 O   0  0  0  0  0  0  0  0  0  0  0  0
  1  2  1  0  0  0  0
  2  3  1  0  0  0  0
  3  4  1  0  0  0  0
  4  5  1  0  0  0  0
  5  6  1  0  0  0  0
  6  7  2  0  0  0  0
  6  8  1  0  0  0  0
  8 10  1  0  0  0  0
  9  8  1  0  0  0  0
 10 11  1  0  0  0  0
 11 16  1  0  0  0  0
 12 11  2  0  0  0  0
 12 13  1  0  0  0  0
 13 14  2  0  0  0  0
 14 15  1  0  0  0  0
 14 19  1  0  0  0  0
 15 17  1  0  0  0  0
 16 15  2  0  0  0  0
 17 18  1  0  0  0  0
 20 19  1  0  0  0  0
 21 22  1  0  0  0  0
 21  1  1  0  0  0  0
 23 22  1  0  0  0  0
 23 25  1  0  0  0  0
 24 27  1  0  0  0  0
 24 28  1  0  0  0  0
 25 24  1  0  0  0  0
 26 25  2  0  0  0  0
 28 32  1  0  0  0  0
 29 34  1  0  0  0  0
 29 38  1  0  0  0  0
 30 29  2  0  0  0  0
 31 32  2  0  0  0  0
 31 30  1  0  0  0  0
 32 33  1  0  0  0  0
 33 34  2  0  0  0  0
 34 35  1  0  0  0  0
 35 36  1  0  0  0  0
 37 38  1  0  0  0  0
M  END
>  <MODEL>
9

>  <REMARK>
 VINA RESULT:    -6.189      6.293      9.369
 INTER + INTRA:         -13.804
 INTER:                 -11.978
 INTRA:                  -1.826
 UNBOUND:                -1.826
  Name = CHEMBL333488
  19 active torsions:
  status: ('A' for Active; 'I' for Inactive)
    1  A    between atoms: C_1  and  O_2
    2  A    between atoms: O_2  and  C_3
    3  A    between atoms: C_6  and  C_7
    4  A    between atoms: C_7  and  N_8
    5  A    between atoms: C_9  and  C_11
    6  A    between atoms: C_11  and  C_12
    7  A    between atoms: C_12  and  C_13
    8  A    between atoms: C_13  and  C_14
    9  A    between atoms: C_14  and  C_15
   10  A    between atoms: C_15  and  C_16
   11  A    between atoms: C_16  and  C_17
   12  A    between atoms: C_17  and  C_18
   13  A    between atoms: C_18  and  C_19
   14  A    between atoms: N_21  and  C_22
   15  A    between atoms: C_22  and  C_23
   16  A    between atoms: C_26  and  O_27
   17  A    between atoms: O_27  and  C_28
   18  A    between atoms: C_29  and  O_30
   19  A    between atoms: C_33  and  O_34
                            x       y       z     vdW  Elec       q    Type
                         _______ _______ _______ _____ _____    ______ ____

>  <TORSDO>
F 17

>  <SCORE>
-6.189

>  <RMSD_LB>
6.293

>  <RMSD_UB>
9.369

$$$$
