CHEMBL435308
 OpenBabel10172500133D

 32 32  0  0  1  0  0  0  0  0999 V2000
  142.1120  137.6740  152.4580 C   0  0  0  0  0  0  0  0  0  0  0  0
  142.6100  137.9060  153.7420 C   0  0  0  0  0  3  0  0  0  0  0  0
  141.7510  138.2540  154.7890 C   0  0  0  0  0  3  0  0  0  0  0  0
  140.3740  138.3870  154.5720 C   0  0  0  0  0  0  0  0  0  0  0  0
  139.8630  138.1610  153.2840 C   0  0  0  0  0  0  0  0  0  0  0  0
  140.7300  137.7730  152.2480 C   0  0  0  0  0  3  0  0  0  0  0  0
  138.5480  138.2480  152.8910 O   0  0  0  0  0  0  0  0  0  0  0  0
  138.1300  137.4020  151.8290 C   0  0  0  0  0  1  0  0  0  0  0  0
  143.0580  137.3900  151.3210 C   0  0  0  0  0  2  0  0  0  0  0  0
  144.1500  139.4260  150.5450 C   0  0  0  0  0  0  0  0  0  0  0  0
  143.1650  139.7490  149.8850 O   0  0  0  0  0  0  0  0  0  0  0  0
  144.2010  138.2670  151.2790 N   0  0  0  0  0  0  0  0  0  0  0  0
  145.0170  138.0350  151.7780 H   0  0  0  0  0  0  0  0  0  0  0  0
  145.4220  140.2480  150.5910 C   0  0  0  0  0  2  0  0  0  0  0  0
  145.1240  141.6880  151.0060 C   0  0  0  0  0  2  0  0  0  0  0  0
  146.2820  142.3100  151.7820 C   0  0  0  0  0  2  0  0  0  0  0  0
  147.5620  142.2670  150.9490 C   0  0  0  0  0  2  0  0  0  0  0  0
  148.7540  141.7980  151.7780 C   0  0  0  0  0  2  0  0  0  0  0  0
  148.3970  141.7530  153.2630 C   0  0  0  0  0  2  0  0  0  0  0  0
  148.3870  139.2590  152.9510 C   0  0  0  0  0  1  0  0  0  0  0  0
  148.7600  140.4040  153.8780 C   0  0  0  0  0  2  0  0  0  0  0  0
  139.4870  138.7180  155.5520 O   0  0  0  0  0  0  0  0  0  0  0  0
  138.9680  137.6870  156.3980 C   0  0  0  0  0  2  0  0  0  0  0  0
  137.4360  137.8060  156.3710 C   0  0  1  0  0  3  0  0  0  0  0  0
  137.0410  138.8220  155.4380 O   0  0  0  0  0  0  0  0  0  0  0  0
  137.5880  139.6110  155.5670 H   0  0  0  0  0  0  0  0  0  0  0  0
  136.7720  136.4720  155.9820 C   0  0  0  0  0  2  0  0  0  0  0  0
  136.3860  136.4660  154.5700 N   0  0  0  0  0  4  0  0  0  0  0  0
  137.2170  136.6090  153.9970 H   0  0  0  0  0  0  0  0  0  0  0  0
  135.7110  137.2150  154.4150 H   0  0  0  0  0  0  0  0  0  0  0  0
  135.7650  135.2000  154.2030 C   0  0  0  0  0  2  0  0  0  0  0  0
  134.7740  134.7960  155.2800 C   0  0  0  0  0  1  0  0  0  0  0  0
  1  2  1  0  0  0  0
  2  3  2  0  0  0  0
  4  3  1  0  0  0  0
  4 22  1  0  0  0  0
  5  4  2  0  0  0  0
  6  1  2  0  0  0  0
  6  5  1  0  0  0  0
  7  5  1  0  0  0  0
  8  7  1  0  0  0  0
  9  1  1  0  0  0  0
 10 14  1  0  0  0  0
 10 12  1  0  0  0  0
 11 10  2  0  0  0  0
 12  9  1  0  0  0  0
 12 13  1  0  0  0  0
 14 15  1  0  0  0  0
 15 16  1  0  0  0  0
 17 18  1  0  0  0  0
 17 16  1  0  0  0  0
 18 19  1  0  0  0  0
 19 21  1  0  0  0  0
 20 21  1  0  0  0  0
 22 23  1  0  0  0  0
 24 27  1  6  0  0  0
 24 23  1  0  0  0  0
 25 26  1  0  0  0  0
 25 24  1  0  0  0  0
 28 27  1  0  0  0  0
 29 28  1  0  0  0  0
 30 28  1  0  0  0  0
 31 28  1  0  0  0  0
 31 32  1  0  0  0  0
M  END
>  <MODEL>
1

>  <REMARK>
 VINA RESULT:    -6.525      0.000      0.000
 INTER + INTRA:         -14.512
 INTER:                 -12.570
 INTRA:                  -1.942
 UNBOUND:                -1.694
  Name = CHEMBL435308
  20 active torsions:
  status: ('A' for Active; 'I' for Inactive)
    1  A    between atoms: C_1  and  C_2
    2  A    between atoms: C_2  and  C_3
    3  A    between atoms: C_3  and  C_4
    4  A    between atoms: C_4  and  C_5
    5  A    between atoms: C_5  and  C_6
    6  A    between atoms: C_6  and  C_7
    7  A    between atoms: C_7  and  C_8
    8  A    between atoms: C_8  and  C_9
    9  A    between atoms: N_11  and  C_12
   10  A    between atoms: C_12  and  C_13
   11  A    between atoms: C_16  and  O_17
   12  A    between atoms: O_17  and  C_18
   13  A    between atoms: C_18  and  C_19
   14  A    between atoms: C_19  and  O_20
   15  A    between atoms: C_19  and  C_21
   16  A    between atoms: C_21  and  N_22
   17  A    between atoms: N_22  and  C_23
   18  A    between atoms: C_23  and  C_24
   19  A    between atoms: C_25  and  O_26
   20  A    between atoms: O_26  and  C_27
                            x       y       z     vdW  Elec       q    Type
                         _______ _______ _______ _____ _____    ______ ____

>  <TORSDO>
F 17

>  <SCORE>
-6.525

>  <RMSD_LB>
0.000

>  <RMSD_UB>
0.000

$$$$
CHEMBL435308
 OpenBabel10172500133D

 32 32  0  0  1  0  0  0  0  0999 V2000
  137.6910  135.4110  149.1320 C   0  0  0  0  0  0  0  0  0  0  0  0
  138.8770  136.1470  149.1830 C   0  0  0  0  0  3  0  0  0  0  0  0
  139.1350  137.0130  150.2500 C   0  0  0  0  0  3  0  0  0  0  0  0
  138.2070  137.1670  151.2870 C   0  0  0  0  0  0  0  0  0  0  0  0
  137.0090  136.4360  151.2450 C   0  0  0  0  0  0  0  0  0  0  0  0
  136.7780  135.5390  150.1880 C   0  0  0  0  0  3  0  0  0  0  0  0
  135.9920  136.4650  152.1690 O   0  0  0  0  0  0  0  0  0  0  0  0
  135.8160  135.3100  152.9780 C   0  0  0  0  0  1  0  0  0  0  0  0
  137.3850  134.5530  147.9330 C   0  0  0  0  0  2  0  0  0  0  0  0
  135.4420  133.3350  147.1080 C   0  0  0  0  0  0  0  0  0  0  0  0
  136.1100  132.3230  146.9120 O   0  0  0  0  0  0  0  0  0  0  0  0
  135.9840  134.4970  147.5980 N   0  0  0  0  0  0  0  0  0  0  0  0
  135.4170  135.2920  147.7210 H   0  0  0  0  0  0  0  0  0  0  0  0
  133.9610  133.4220  146.7980 C   0  0  0  0  0  2  0  0  0  0  0  0
  133.1290  133.2590  148.0690 C   0  0  0  0  0  2  0  0  0  0  0  0
  133.9350  132.6260  149.2010 C   0  0  0  0  0  2  0  0  0  0  0  0
  133.7410  133.4140  150.4960 C   0  0  0  0  0  2  0  0  0  0  0  0
  132.5420  134.3540  150.4060 C   0  0  0  0  0  2  0  0  0  0  0  0
  132.9450  135.7820  150.7700 C   0  0  0  0  0  2  0  0  0  0  0  0
  133.6970  136.9300  148.6640 C   0  0  0  0  0  1  0  0  0  0  0  0
  132.5650  136.7620  149.6630 C   0  0  0  0  0  2  0  0  0  0  0  0
  138.4040  137.9910  152.3560 O   0  0  0  0  0  0  0  0  0  0  0  0
  139.7260  138.1430  152.8830 C   0  0  0  0  0  2  0  0  0  0  0  0
  139.6160  139.0260  154.1350 C   0  0  1  0  0  3  0  0  0  0  0  0
  138.8240  140.1880  153.8460 O   0  0  0  0  0  0  0  0  0  0  0  0
  138.6020  140.6430  154.6730 H   0  0  0  0  0  0  0  0  0  0  0  0
  138.9850  138.2610  155.3140 C   0  0  0  0  0  2  0  0  0  0  0  0
  137.5470  138.5210  155.4030 N   0  0  0  0  0  4  0  0  0  0  0  0
  137.2120  138.8510  154.4980 H   0  0  0  0  0  0  0  0  0  0  0  0
  137.3880  139.2250  156.1220 H   0  0  0  0  0  0  0  0  0  0  0  0
  136.8190  137.3130  155.7680 C   0  0  0  0  0  2  0  0  0  0  0  0
  137.7790  136.3220  156.4050 C   0  0  0  0  0  1  0  0  0  0  0  0
  1  2  2  0  0  0  0
  1  6  1  0  0  0  0
  2  3  1  0  0  0  0
  3  4  2  0  0  0  0
  4 22  1  0  0  0  0
  5  4  1  0  0  0  0
  5  7  1  0  0  0  0
  6  5  2  0  0  0  0
  7  8  1  0  0  0  0
  9  1  1  0  0  0  0
 10 12  1  0  0  0  0
 11 10  2  0  0  0  0
 12 13  1  0  0  0  0
 12  9  1  0  0  0  0
 14 10  1  0  0  0  0
 14 15  1  0  0  0  0
 15 16  1  0  0  0  0
 16 17  1  0  0  0  0
 18 17  1  0  0  0  0
 18 19  1  0  0  0  0
 20 21  1  0  0  0  0
 21 19  1  0  0  0  0
 22 23  1  0  0  0  0
 24 23  1  6  0  0  0
 24 27  1  0  0  0  0
 25 24  1  0  0  0  0
 25 26  1  0  0  0  0
 27 28  1  0  0  0  0
 28 31  1  0  0  0  0
 28 30  1  0  0  0  0
 29 28  1  0  0  0  0
 31 32  1  0  0  0  0
M  END
>  <MODEL>
2

>  <REMARK>
 VINA RESULT:    -6.415      5.219      9.852
 INTER + INTRA:         -14.297
 INTER:                 -12.167
 INTRA:                  -2.130
 UNBOUND:                -1.694
  Name = CHEMBL435308
  20 active torsions:
  status: ('A' for Active; 'I' for Inactive)
    1  A    between atoms: C_1  and  C_2
    2  A    between atoms: C_2  and  C_3
    3  A    between atoms: C_3  and  C_4
    4  A    between atoms: C_4  and  C_5
    5  A    between atoms: C_5  and  C_6
    6  A    between atoms: C_6  and  C_7
    7  A    between atoms: C_7  and  C_8
    8  A    between atoms: C_8  and  C_9
    9  A    between atoms: N_11  and  C_12
   10  A    between atoms: C_12  and  C_13
   11  A    between atoms: C_16  and  O_17
   12  A    between atoms: O_17  and  C_18
   13  A    between atoms: C_18  and  C_19
   14  A    between atoms: C_19  and  O_20
   15  A    between atoms: C_19  and  C_21
   16  A    between atoms: C_21  and  N_22
   17  A    between atoms: N_22  and  C_23
   18  A    between atoms: C_23  and  C_24
   19  A    between atoms: C_25  and  O_26
   20  A    between atoms: O_26  and  C_27
                            x       y       z     vdW  Elec       q    Type
                         _______ _______ _______ _____ _____    ______ ____

>  <TORSDO>
F 17

>  <SCORE>
-6.415

>  <RMSD_LB>
5.219

>  <RMSD_UB>
9.852

$$$$
CHEMBL435308
 OpenBabel10172500133D

 32 32  0  0  1  0  0  0  0  0999 V2000
  141.3830  137.7610  152.1980 C   0  0  0  0  0  0  0  0  0  0  0  0
  141.4690  138.2190  153.5150 C   0  0  0  0  0  3  0  0  0  0  0  0
  140.3130  138.4570  154.2650 C   0  0  0  0  0  3  0  0  0  0  0  0
  139.0450  138.2500  153.7100 C   0  0  0  0  0  0  0  0  0  0  0  0
  138.9460  137.7950  152.3860 C   0  0  0  0  0  0  0  0  0  0  0  0
  140.1140  137.5210  151.6540 C   0  0  0  0  0  3  0  0  0  0  0  0
  137.7900  137.5420  151.6850 O   0  0  0  0  0  0  0  0  0  0  0  0
  137.7620  137.9280  150.3170 C   0  0  0  0  0  1  0  0  0  0  0  0
  142.6320  137.5970  151.3720 C   0  0  0  0  0  2  0  0  0  0  0  0
  144.0840  139.5500  151.2370 C   0  0  0  0  0  0  0  0  0  0  0  0
  144.6570  139.2440  152.2800 O   0  0  0  0  0  0  0  0  0  0  0  0
  143.0570  138.8060  150.7110 N   0  0  0  0  0  0  0  0  0  0  0  0
  142.6110  139.0970  149.8840 H   0  0  0  0  0  0  0  0  0  0  0  0
  144.4230  140.7940  150.4390 C   0  0  0  0  0  2  0  0  0  0  0  0
  145.2630  141.7600  151.2730 C   0  0  0  0  0  2  0  0  0  0  0  0
  145.9290  142.8280  150.4090 C   0  0  0  0  0  2  0  0  0  0  0  0
  147.4380  142.5930  150.3460 C   0  0  0  0  0  2  0  0  0  0  0  0
  147.8770  141.5010  151.3160 C   0  0  0  0  0  2  0  0  0  0  0  0
  148.9820  142.0110  152.2410 C   0  0  0  0  0  2  0  0  0  0  0  0
  147.4210  141.9500  154.2110 C   0  0  0  0  0  1  0  0  0  0  0  0
  148.7750  141.5200  153.6710 C   0  0  0  0  0  2  0  0  0  0  0  0
  137.8820  138.4590  154.3920 O   0  0  0  0  0  0  0  0  0  0  0  0
  137.6460  137.7320  155.6020 C   0  0  0  0  0  2  0  0  0  0  0  0
  136.2740  137.0530  155.4620 C   0  0  1  0  0  3  0  0  0  0  0  0
  136.0500  136.6810  154.0940 O   0  0  0  0  0  0  0  0  0  0  0  0
  136.8240  136.9220  153.5620 H   0  0  0  0  0  0  0  0  0  0  0  0
  136.1700  135.8000  156.3530 C   0  0  0  0  0  2  0  0  0  0  0  0
  136.9810  135.9440  157.5640 N   0  0  0  0  0  4  0  0  0  0  0  0
  137.6570  136.6940  157.4240 H   0  0  0  0  0  0  0  0  0  0  0  0
  137.4560  135.0600  157.7420 H   0  0  0  0  0  0  0  0  0  0  0  0
  136.1480  136.2620  158.7160 C   0  0  0  0  0  2  0  0  0  0  0  0
  136.9210  137.1660  159.6600 C   0  0  0  0  0  1  0  0  0  0  0  0
  1  2  1  0  0  0  0
  2  3  2  0  0  0  0
  4  3  1  0  0  0  0
  4 22  1  0  0  0  0
  5  4  2  0  0  0  0
  6  1  2  0  0  0  0
  6  5  1  0  0  0  0
  7  5  1  0  0  0  0
  8  7  1  0  0  0  0
  9  1  1  0  0  0  0
 10 11  2  0  0  0  0
 12 10  1  0  0  0  0
 12  9  1  0  0  0  0
 13 12  1  0  0  0  0
 14 10  1  0  0  0  0
 14 15  1  0  0  0  0
 16 15  1  0  0  0  0
 17 16  1  0  0  0  0
 17 18  1  0  0  0  0
 18 19  1  0  0  0  0
 19 21  1  0  0  0  0
 21 20  1  0  0  0  0
 22 23  1  0  0  0  0
 24 23  1  6  0  0  0
 24 27  1  0  0  0  0
 25 24  1  0  0  0  0
 26 25  1  0  0  0  0
 27 28  1  0  0  0  0
 28 30  1  0  0  0  0
 28 31  1  0  0  0  0
 29 28  1  0  0  0  0
 31 32  1  0  0  0  0
M  END
>  <MODEL>
3

>  <REMARK>
 VINA RESULT:    -6.310      1.572      2.083
 INTER + INTRA:         -14.091
 INTER:                 -12.608
 INTRA:                  -1.483
 UNBOUND:                -1.694
  Name = CHEMBL435308
  20 active torsions:
  status: ('A' for Active; 'I' for Inactive)
    1  A    between atoms: C_1  and  C_2
    2  A    between atoms: C_2  and  C_3
    3  A    between atoms: C_3  and  C_4
    4  A    between atoms: C_4  and  C_5
    5  A    between atoms: C_5  and  C_6
    6  A    between atoms: C_6  and  C_7
    7  A    between atoms: C_7  and  C_8
    8  A    between atoms: C_8  and  C_9
    9  A    between atoms: N_11  and  C_12
   10  A    between atoms: C_12  and  C_13
   11  A    between atoms: C_16  and  O_17
   12  A    between atoms: O_17  and  C_18
   13  A    between atoms: C_18  and  C_19
   14  A    between atoms: C_19  and  O_20
   15  A    between atoms: C_19  and  C_21
   16  A    between atoms: C_21  and  N_22
   17  A    between atoms: N_22  and  C_23
   18  A    between atoms: C_23  and  C_24
   19  A    between atoms: C_25  and  O_26
   20  A    between atoms: O_26  and  C_27
                            x       y       z     vdW  Elec       q    Type
                         _______ _______ _______ _____ _____    ______ ____

>  <TORSDO>
F 17

>  <SCORE>
-6.310

>  <RMSD_LB>
1.572

>  <RMSD_UB>
2.083

$$$$
CHEMBL435308
 OpenBabel10172500133D

 32 32  0  0  1  0  0  0  0  0999 V2000
  140.4300  138.2270  152.4700 C   0  0  0  0  0  0  0  0  0  0  0  0
  140.1590  137.7640  151.1810 C   0  0  0  0  0  3  0  0  0  0  0  0
  138.8910  137.2760  150.8490 C   0  0  0  0  0  3  0  0  0  0  0  0
  137.8680  137.2320  151.8040 C   0  0  0  0  0  0  0  0  0  0  0  0
  138.1310  137.6900  153.1050 C   0  0  0  0  0  0  0  0  0  0  0  0
  139.3960  138.2150  153.4170 C   0  0  0  0  0  3  0  0  0  0  0  0
  137.2530  137.7180  154.1630 O   0  0  0  0  0  0  0  0  0  0  0  0
  137.7600  138.1510  155.4180 C   0  0  0  0  0  1  0  0  0  0  0  0
  141.8240  138.6630  152.8380 C   0  0  0  0  0  2  0  0  0  0  0  0
  143.7500  139.6190  151.6920 C   0  0  0  0  0  0  0  0  0  0  0  0
  144.5190  138.8440  152.2560 O   0  0  0  0  0  0  0  0  0  0  0  0
  142.3970  139.6180  151.9240 N   0  0  0  0  0  0  0  0  0  0  0  0
  141.8180  140.2700  151.4660 H   0  0  0  0  0  0  0  0  0  0  0  0
  144.2120  140.6780  150.7110 C   0  0  0  0  0  2  0  0  0  0  0  0
  145.2410  141.6040  151.3560 C   0  0  0  0  0  2  0  0  0  0  0  0
  145.9550  142.4730  150.3240 C   0  0  0  0  0  2  0  0  0  0  0  0
  147.4600  142.4830  150.5880 C   0  0  0  0  0  2  0  0  0  0  0  0
  147.8560  141.4280  151.6160 C   0  0  0  0  0  2  0  0  0  0  0  0
  148.9320  141.9680  152.5580 C   0  0  0  0  0  2  0  0  0  0  0  0
  148.4550  140.2910  154.3690 C   0  0  0  0  0  1  0  0  0  0  0  0
  148.5380  141.7670  154.0190 C   0  0  0  0  0  2  0  0  0  0  0  0
  136.6110  136.7730  151.5410 O   0  0  0  0  0  0  0  0  0  0  0  0
  136.3630  135.3640  151.5780 C   0  0  0  0  0  2  0  0  0  0  0  0
  135.2070  135.1330  152.5630 C   0  0  1  0  0  3  0  0  0  0  0  0
  134.8190  136.3770  153.1630 O   0  0  0  0  0  0  0  0  0  0  0  0
  133.9200  136.3000  153.5170 H   0  0  0  0  0  0  0  0  0  0  0  0
  133.9870  134.5030  151.8650 C   0  0  0  0  0  2  0  0  0  0  0  0
  133.9240  134.8950  150.4560 N   0  0  0  0  0  4  0  0  0  0  0  0
  134.7700  134.5780  149.9840 H   0  0  0  0  0  0  0  0  0  0  0  0
  133.8440  135.9100  150.4050 H   0  0  0  0  0  0  0  0  0  0  0  0
  132.7640  134.3050  149.8000 C   0  0  0  0  0  2  0  0  0  0  0  0
  133.2250  133.2130  148.8510 C   0  0  0  0  0  1  0  0  0  0  0  0
  1  9  1  0  0  0  0
  1  6  1  0  0  0  0
  2  1  2  0  0  0  0
  3  2  1  0  0  0  0
  3  4  2  0  0  0  0
  4  5  1  0  0  0  0
  5  6  2  0  0  0  0
  5  7  1  0  0  0  0
  7  8  1  0  0  0  0
 10 12  1  0  0  0  0
 10 11  2  0  0  0  0
 12  9  1  0  0  0  0
 13 12  1  0  0  0  0
 14 15  1  0  0  0  0
 14 10  1  0  0  0  0
 16 17  1  0  0  0  0
 16 15  1  0  0  0  0
 17 18  1  0  0  0  0
 18 19  1  0  0  0  0
 19 21  1  0  0  0  0
 21 20  1  0  0  0  0
 22 23  1  0  0  0  0
 22  4  1  0  0  0  0
 24 23  1  6  0  0  0
 24 25  1  0  0  0  0
 25 26  1  0  0  0  0
 27 24  1  0  0  0  0
 28 27  1  0  0  0  0
 29 28  1  0  0  0  0
 30 28  1  0  0  0  0
 31 28  1  0  0  0  0
 32 31  1  0  0  0  0
M  END
>  <MODEL>
4

>  <REMARK>
 VINA RESULT:    -6.310      2.458      3.520
 INTER + INTRA:         -14.090
 INTER:                 -12.758
 INTRA:                  -1.332
 UNBOUND:                -1.694
  Name = CHEMBL435308
  20 active torsions:
  status: ('A' for Active; 'I' for Inactive)
    1  A    between atoms: C_1  and  C_2
    2  A    between atoms: C_2  and  C_3
    3  A    between atoms: C_3  and  C_4
    4  A    between atoms: C_4  and  C_5
    5  A    between atoms: C_5  and  C_6
    6  A    between atoms: C_6  and  C_7
    7  A    between atoms: C_7  and  C_8
    8  A    between atoms: C_8  and  C_9
    9  A    between atoms: N_11  and  C_12
   10  A    between atoms: C_12  and  C_13
   11  A    between atoms: C_16  and  O_17
   12  A    between atoms: O_17  and  C_18
   13  A    between atoms: C_18  and  C_19
   14  A    between atoms: C_19  and  O_20
   15  A    between atoms: C_19  and  C_21
   16  A    between atoms: C_21  and  N_22
   17  A    between atoms: N_22  and  C_23
   18  A    between atoms: C_23  and  C_24
   19  A    between atoms: C_25  and  O_26
   20  A    between atoms: O_26  and  C_27
                            x       y       z     vdW  Elec       q    Type
                         _______ _______ _______ _____ _____    ______ ____

>  <TORSDO>
F 17

>  <SCORE>
-6.310

>  <RMSD_LB>
2.458

>  <RMSD_UB>
3.520

$$$$
CHEMBL435308
 OpenBabel10172500133D

 32 32  0  0  1  0  0  0  0  0999 V2000
  141.9860  137.7230  152.3410 C   0  0  0  0  0  0  0  0  0  0  0  0
  142.4630  138.1780  153.5720 C   0  0  0  0  0  3  0  0  0  0  0  0
  141.5770  138.5590  154.5850 C   0  0  0  0  0  3  0  0  0  0  0  0
  140.1930  138.5020  154.3840 C   0  0  0  0  0  0  0  0  0  0  0  0
  139.7020  138.0510  153.1480 C   0  0  0  0  0  0  0  0  0  0  0  0
  140.6000  137.6320  152.1520 C   0  0  0  0  0  3  0  0  0  0  0  0
  138.3830  137.9320  152.7780 O   0  0  0  0  0  0  0  0  0  0  0  0
  138.1160  137.4530  151.4670 C   0  0  0  0  0  1  0  0  0  0  0  0
  142.9500  137.4040  151.2280 C   0  0  0  0  0  2  0  0  0  0  0  0
  145.3410  137.7060  150.8670 C   0  0  0  0  0  0  0  0  0  0  0  0
  145.4870  136.5200  150.5790 O   0  0  0  0  0  0  0  0  0  0  0  0
  144.1250  138.2380  151.2170 N   0  0  0  0  0  0  0  0  0  0  0  0
  144.0560  139.1890  151.4610 H   0  0  0  0  0  0  0  0  0  0  0  0
  146.4880  138.6960  150.9010 C   0  0  0  0  0  2  0  0  0  0  0  0
  147.3320  138.5060  152.1600 C   0  0  0  0  0  2  0  0  0  0  0  0
  147.2110  139.6920  153.1130 C   0  0  0  0  0  2  0  0  0  0  0  0
  148.3670  140.6680  152.8960 C   0  0  0  0  0  2  0  0  0  0  0  0
  147.8980  141.9500  152.2150 C   0  0  0  0  0  2  0  0  0  0  0  0
  146.4630  142.2840  152.6200 C   0  0  0  0  0  2  0  0  0  0  0  0
  146.3650  142.7160  150.1460 C   0  0  0  0  0  1  0  0  0  0  0  0
  145.5590  142.4110  151.3970 C   0  0  0  0  0  2  0  0  0  0  0  0
  139.2790  138.8540  155.3330 O   0  0  0  0  0  0  0  0  0  0  0  0
  138.8060  137.8580  156.2460 C   0  0  0  0  0  2  0  0  0  0  0  0
  137.3120  138.1320  156.4810 C   0  0  1  0  0  3  0  0  0  0  0  0
  136.5640  137.8140  155.2990 O   0  0  0  0  0  0  0  0  0  0  0  0
  136.0100  138.5700  155.0520 H   0  0  0  0  0  0  0  0  0  0  0  0
  136.7660  137.3110  157.6650 C   0  0  0  0  0  2  0  0  0  0  0  0
  136.7210  135.8840  157.3410 N   0  0  0  0  0  4  0  0  0  0  0  0
  137.6460  135.4800  157.4900 H   0  0  0  0  0  0  0  0  0  0  0  0
  136.4370  135.7810  156.3670 H   0  0  0  0  0  0  0  0  0  0  0  0
  135.7570  135.1880  158.1820 C   0  0  0  0  0  2  0  0  0  0  0  0
  135.4370  136.0440  159.3950 C   0  0  0  0  0  1  0  0  0  0  0  0
  1  2  1  0  0  0  0
  2  3  2  0  0  0  0
  4  3  1  0  0  0  0
  4 22  1  0  0  0  0
  5  4  2  0  0  0  0
  6  1  2  0  0  0  0
  6  5  1  0  0  0  0
  7  5  1  0  0  0  0
  8  7  1  0  0  0  0
  9  1  1  0  0  0  0
 10 14  1  0  0  0  0
 10 12  1  0  0  0  0
 11 10  2  0  0  0  0
 12  9  1  0  0  0  0
 12 13  1  0  0  0  0
 14 15  1  0  0  0  0
 15 16  1  0  0  0  0
 17 16  1  0  0  0  0
 18 19  1  0  0  0  0
 18 17  1  0  0  0  0
 20 21  1  0  0  0  0
 21 19  1  0  0  0  0
 22 23  1  0  0  0  0
 24 23  1  6  0  0  0
 24 27  1  0  0  0  0
 25 24  1  0  0  0  0
 26 25  1  0  0  0  0
 28 29  1  0  0  0  0
 28 27  1  0  0  0  0
 28 31  1  0  0  0  0
 30 28  1  0  0  0  0
 31 32  1  0  0  0  0
M  END
>  <MODEL>
5

>  <REMARK>
 VINA RESULT:    -6.243      1.604      2.359
 INTER + INTRA:         -13.958
 INTER:                 -12.275
 INTRA:                  -1.683
 UNBOUND:                -1.694
  Name = CHEMBL435308
  20 active torsions:
  status: ('A' for Active; 'I' for Inactive)
    1  A    between atoms: C_1  and  C_2
    2  A    between atoms: C_2  and  C_3
    3  A    between atoms: C_3  and  C_4
    4  A    between atoms: C_4  and  C_5
    5  A    between atoms: C_5  and  C_6
    6  A    between atoms: C_6  and  C_7
    7  A    between atoms: C_7  and  C_8
    8  A    between atoms: C_8  and  C_9
    9  A    between atoms: N_11  and  C_12
   10  A    between atoms: C_12  and  C_13
   11  A    between atoms: C_16  and  O_17
   12  A    between atoms: O_17  and  C_18
   13  A    between atoms: C_18  and  C_19
   14  A    between atoms: C_19  and  O_20
   15  A    between atoms: C_19  and  C_21
   16  A    between atoms: C_21  and  N_22
   17  A    between atoms: N_22  and  C_23
   18  A    between atoms: C_23  and  C_24
   19  A    between atoms: C_25  and  O_26
   20  A    between atoms: O_26  and  C_27
                            x       y       z     vdW  Elec       q    Type
                         _______ _______ _______ _____ _____    ______ ____

>  <TORSDO>
F 17

>  <SCORE>
-6.243

>  <RMSD_LB>
1.604

>  <RMSD_UB>
2.359

$$$$
CHEMBL435308
 OpenBabel10172500133D

 32 32  0  0  1  0  0  0  0  0999 V2000
  139.7900  137.6460  151.8050 C   0  0  0  0  0  0  0  0  0  0  0  0
  141.0880  137.3890  151.3610 C   0  0  0  0  0  3  0  0  0  0  0  0
  142.1850  137.5900  152.2060 C   0  0  0  0  0  3  0  0  0  0  0  0
  142.0060  138.0620  153.5120 C   0  0  0  0  0  0  0  0  0  0  0  0
  140.7050  138.3280  153.9680 C   0  0  0  0  0  0  0  0  0  0  0  0
  139.6080  138.0840  153.1240 C   0  0  0  0  0  3  0  0  0  0  0  0
  140.3450  138.7940  155.2100 O   0  0  0  0  0  0  0  0  0  0  0  0
  139.8270  137.8480  156.1350 C   0  0  0  0  0  1  0  0  0  0  0  0
  138.6270  137.5130  150.8570 C   0  0  0  0  0  2  0  0  0  0  0  0
  136.7600  135.9600  151.0710 C   0  0  0  0  0  0  0  0  0  0  0  0
  137.1760  135.2720  150.1420 O   0  0  0  0  0  0  0  0  0  0  0  0
  137.4010  137.0990  151.4920 N   0  0  0  0  0  0  0  0  0  0  0  0
  137.0220  137.6340  152.2270 H   0  0  0  0  0  0  0  0  0  0  0  0
  135.4840  135.6490  151.8260 C   0  0  0  0  0  2  0  0  0  0  0  0
  135.2130  134.1450  151.8370 C   0  0  0  0  0  2  0  0  0  0  0  0
  133.8390  133.8080  151.2660 C   0  0  0  0  0  2  0  0  0  0  0  0
  133.9820  132.9380  150.0180 C   0  0  0  0  0  2  0  0  0  0  0  0
  134.1950  133.7840  148.7660 C   0  0  0  0  0  2  0  0  0  0  0  0
  132.9050  134.4990  148.3690 C   0  0  0  0  0  2  0  0  0  0  0  0
  132.7940  136.8360  149.2880 C   0  0  0  0  0  1  0  0  0  0  0  0
  133.1570  135.9780  148.0870 C   0  0  0  0  0  2  0  0  0  0  0  0
  143.0330  138.2720  154.3830 O   0  0  0  0  0  0  0  0  0  0  0  0
  144.3510  138.4820  153.8670 C   0  0  0  0  0  2  0  0  0  0  0  0
  144.9660  139.6500  154.6530 C   0  0  1  0  0  3  0  0  0  0  0  0
  145.5130  139.1730  155.8910 O   0  0  0  0  0  0  0  0  0  0  0  0
  145.8570  139.9200  156.4030 H   0  0  0  0  0  0  0  0  0  0  0  0
  146.0730  140.3550  153.8460 C   0  0  0  0  0  2  0  0  0  0  0  0
  147.1800  140.7630  154.7130 N   0  0  0  0  0  4  0  0  0  0  0  0
  147.1220  140.2480  155.5910 H   0  0  0  0  0  0  0  0  0  0  0  0
  147.1070  141.7660  154.8800 H   0  0  0  0  0  0  0  0  0  0  0  0
  148.4650  140.4900  154.0840 C   0  0  0  0  0  2  0  0  0  0  0  0
  148.3170  139.3170  153.1300 C   0  0  0  0  0  1  0  0  0  0  0  0
  1  6  1  0  0  0  0
  2  1  2  0  0  0  0
  2  3  1  0  0  0  0
  3  4  2  0  0  0  0
  4  5  1  0  0  0  0
  4 22  1  0  0  0  0
  5  7  1  0  0  0  0
  6  5  2  0  0  0  0
  7  8  1  0  0  0  0
  9 12  1  0  0  0  0
  9  1  1  0  0  0  0
 10 12  1  0  0  0  0
 10 14  1  0  0  0  0
 11 10  2  0  0  0  0
 12 13  1  0  0  0  0
 14 15  1  0  0  0  0
 16 15  1  0  0  0  0
 17 16  1  0  0  0  0
 18 17  1  0  0  0  0
 19 18  1  0  0  0  0
 21 19  1  0  0  0  0
 21 20  1  0  0  0  0
 23 22  1  0  0  0  0
 23 24  1  0  0  0  0
 24 27  1  6  0  0  0
 24 25  1  0  0  0  0
 25 26  1  0  0  0  0
 27 28  1  0  0  0  0
 28 30  1  0  0  0  0
 28 29  1  0  0  0  0
 31 28  1  0  0  0  0
 32 31  1  0  0  0  0
M  END
>  <MODEL>
6

>  <REMARK>
 VINA RESULT:    -6.239      3.503     10.371
 INTER + INTRA:         -13.952
 INTER:                 -12.550
 INTRA:                  -1.402
 UNBOUND:                -1.694
  Name = CHEMBL435308
  20 active torsions:
  status: ('A' for Active; 'I' for Inactive)
    1  A    between atoms: C_1  and  C_2
    2  A    between atoms: C_2  and  C_3
    3  A    between atoms: C_3  and  C_4
    4  A    between atoms: C_4  and  C_5
    5  A    between atoms: C_5  and  C_6
    6  A    between atoms: C_6  and  C_7
    7  A    between atoms: C_7  and  C_8
    8  A    between atoms: C_8  and  C_9
    9  A    between atoms: N_11  and  C_12
   10  A    between atoms: C_12  and  C_13
   11  A    between atoms: C_16  and  O_17
   12  A    between atoms: O_17  and  C_18
   13  A    between atoms: C_18  and  C_19
   14  A    between atoms: C_19  and  O_20
   15  A    between atoms: C_19  and  C_21
   16  A    between atoms: C_21  and  N_22
   17  A    between atoms: N_22  and  C_23
   18  A    between atoms: C_23  and  C_24
   19  A    between atoms: C_25  and  O_26
   20  A    between atoms: O_26  and  C_27
                            x       y       z     vdW  Elec       q    Type
                         _______ _______ _______ _____ _____    ______ ____

>  <TORSDO>
F 17

>  <SCORE>
-6.239

>  <RMSD_LB>
3.503

>  <RMSD_UB>
10.371

$$$$
CHEMBL435308
 OpenBabel10172500133D

 32 32  0  0  1  0  0  0  0  0999 V2000
  140.6100  138.5780  154.2220 C   0  0  0  0  0  0  0  0  0  0  0  0
  140.9840  137.8910  153.0650 C   0  0  0  0  0  3  0  0  0  0  0  0
  142.3210  137.8560  152.6560 C   0  0  0  0  0  3  0  0  0  0  0  0
  143.3120  138.5170  153.3910 C   0  0  0  0  0  0  0  0  0  0  0  0
  142.9470  139.2150  154.5530 C   0  0  0  0  0  0  0  0  0  0  0  0
  141.6080  139.2100  154.9770 C   0  0  0  0  0  3  0  0  0  0  0  0
  143.7820  139.9170  155.3900 O   0  0  0  0  0  0  0  0  0  0  0  0
  143.2580  140.3110  156.6510 C   0  0  0  0  0  1  0  0  0  0  0  0
  139.1560  138.6860  154.6010 C   0  0  0  0  0  2  0  0  0  0  0  0
  137.2610  137.3810  155.4050 C   0  0  0  0  0  0  0  0  0  0  0  0
  136.6180  138.3970  155.6560 O   0  0  0  0  0  0  0  0  0  0  0  0
  138.5340  137.4190  154.8930 N   0  0  0  0  0  0  0  0  0  0  0  0
  139.0230  136.5800  154.7260 H   0  0  0  0  0  0  0  0  0  0  0  0
  136.7360  135.9830  155.6650 C   0  0  0  0  0  2  0  0  0  0  0  0
  135.3170  135.8260  155.1210 C   0  0  0  0  0  2  0  0  0  0  0  0
  135.2190  134.6970  154.0990 C   0  0  0  0  0  2  0  0  0  0  0  0
  135.7820  135.1490  152.7520 C   0  0  0  0  0  2  0  0  0  0  0  0
  135.5540  134.1000  151.6680 C   0  0  0  0  0  2  0  0  0  0  0  0
  134.3580  134.4750  150.7950 C   0  0  0  0  0  2  0  0  0  0  0  0
  132.7450  133.6370  149.0590 C   0  0  0  0  0  1  0  0  0  0  0  0
  133.7600  133.2440  150.1180 C   0  0  0  0  0  2  0  0  0  0  0  0
  144.6320  138.5140  153.0470 O   0  0  0  0  0  0  0  0  0  0  0  0
  145.4590  137.4270  153.4710 C   0  0  0  0  0  2  0  0  0  0  0  0
  146.4450  137.9850  154.5090 C   0  0  1  0  0  3  0  0  0  0  0  0
  147.4590  137.0100  154.7940 O   0  0  0  0  0  0  0  0  0  0  0  0
  147.0540  136.2300  155.2030 H   0  0  0  0  0  0  0  0  0  0  0  0
  147.1110  139.2830  154.0160 C   0  0  0  0  0  2  0  0  0  0  0  0
  146.5360  140.4560  154.6770 N   0  0  0  0  0  4  0  0  0  0  0  0
  146.8310  140.4660  155.6530 H   0  0  0  0  0  0  0  0  0  0  0  0
  145.5200  140.4000  154.6090 H   0  0  0  0  0  0  0  0  0  0  0  0
  146.9770  141.6870  154.0340 C   0  0  0  0  0  2  0  0  0  0  0  0
  146.1260  141.9410  152.8020 C   0  0  0  0  0  1  0  0  0  0  0  0
  1  9  1  0  0  0  0
  1  6  1  0  0  0  0
  2  1  2  0  0  0  0
  3  2  1  0  0  0  0
  3  4  2  0  0  0  0
  4  5  1  0  0  0  0
  5  6  2  0  0  0  0
  5  7  1  0  0  0  0
  7  8  1  0  0  0  0
  9 12  1  0  0  0  0
 10 11  2  0  0  0  0
 10 14  1  0  0  0  0
 12 10  1  0  0  0  0
 13 12  1  0  0  0  0
 15 14  1  0  0  0  0
 16 15  1  0  0  0  0
 17 16  1  0  0  0  0
 18 17  1  0  0  0  0
 19 18  1  0  0  0  0
 20 21  1  0  0  0  0
 21 19  1  0  0  0  0
 22  4  1  0  0  0  0
 22 23  1  0  0  0  0
 24 23  1  6  0  0  0
 24 25  1  0  0  0  0
 25 26  1  0  0  0  0
 27 24  1  0  0  0  0
 27 28  1  0  0  0  0
 28 29  1  0  0  0  0
 30 28  1  0  0  0  0
 31 28  1  0  0  0  0
 32 31  1  0  0  0  0
M  END
>  <MODEL>
7

>  <REMARK>
 VINA RESULT:    -6.225      2.935     10.276
 INTER + INTRA:         -13.923
 INTER:                 -12.428
 INTRA:                  -1.495
 UNBOUND:                -1.694
  Name = CHEMBL435308
  20 active torsions:
  status: ('A' for Active; 'I' for Inactive)
    1  A    between atoms: C_1  and  C_2
    2  A    between atoms: C_2  and  C_3
    3  A    between atoms: C_3  and  C_4
    4  A    between atoms: C_4  and  C_5
    5  A    between atoms: C_5  and  C_6
    6  A    between atoms: C_6  and  C_7
    7  A    between atoms: C_7  and  C_8
    8  A    between atoms: C_8  and  C_9
    9  A    between atoms: N_11  and  C_12
   10  A    between atoms: C_12  and  C_13
   11  A    between atoms: C_16  and  O_17
   12  A    between atoms: O_17  and  C_18
   13  A    between atoms: C_18  and  C_19
   14  A    between atoms: C_19  and  O_20
   15  A    between atoms: C_19  and  C_21
   16  A    between atoms: C_21  and  N_22
   17  A    between atoms: N_22  and  C_23
   18  A    between atoms: C_23  and  C_24
   19  A    between atoms: C_25  and  O_26
   20  A    between atoms: O_26  and  C_27
                            x       y       z     vdW  Elec       q    Type
                         _______ _______ _______ _____ _____    ______ ____

>  <TORSDO>
F 17

>  <SCORE>
-6.225

>  <RMSD_LB>
2.935

>  <RMSD_UB>
10.276

$$$$
CHEMBL435308
 OpenBabel10172500133D

 32 32  0  0  1  0  0  0  0  0999 V2000
  139.8810  138.2790  153.7520 C   0  0  0  0  0  0  0  0  0  0  0  0
  140.1370  137.7900  152.4690 C   0  0  0  0  0  3  0  0  0  0  0  0
  141.4380  137.7750  151.9560 C   0  0  0  0  0  3  0  0  0  0  0  0
  142.5120  138.2570  152.7140 C   0  0  0  0  0  0  0  0  0  0  0  0
  142.2660  138.7550  154.0030 C   0  0  0  0  0  0  0  0  0  0  0  0
  140.9620  138.7290  154.5240 C   0  0  0  0  0  3  0  0  0  0  0  0
  143.1940  139.2660  154.8800 O   0  0  0  0  0  0  0  0  0  0  0  0
  142.7020  140.0180  155.9820 C   0  0  0  0  0  1  0  0  0  0  0  0
  138.4650  138.3760  154.2560 C   0  0  0  0  0  2  0  0  0  0  0  0
  136.6670  136.9430  155.0640 C   0  0  0  0  0  0  0  0  0  0  0  0
  136.2710  137.8110  155.8380 O   0  0  0  0  0  0  0  0  0  0  0  0
  137.7560  137.1210  154.2470 N   0  0  0  0  0  0  0  0  0  0  0  0
  138.0520  136.3920  153.6550 H   0  0  0  0  0  0  0  0  0  0  0  0
  136.0220  135.5760  154.9510 C   0  0  0  0  0  2  0  0  0  0  0  0
  134.6050  135.6890  154.3910 C   0  0  0  0  0  2  0  0  0  0  0  0
  134.2650  134.5280  153.4600 C   0  0  0  0  0  2  0  0  0  0  0  0
  135.5100  134.0760  152.6990 C   0  0  0  0  0  2  0  0  0  0  0  0
  135.2920  134.1250  151.1890 C   0  0  0  0  0  2  0  0  0  0  0  0
  135.2070  135.5710  150.7020 C   0  0  0  0  0  2  0  0  0  0  0  0
  132.8190  136.3210  150.4790 C   0  0  0  0  0  1  0  0  0  0  0  0
  134.0300  135.7640  149.7500 C   0  0  0  0  0  2  0  0  0  0  0  0
  143.8020  138.2620  152.2720 O   0  0  0  0  0  0  0  0  0  0  0  0
  144.3140  139.4390  151.6380 C   0  0  0  0  0  2  0  0  0  0  0  0
  145.5460  139.8860  152.4410 C   0  0  1  0  0  3  0  0  0  0  0  0
  145.1510  140.8070  153.4680 O   0  0  0  0  0  0  0  0  0  0  0  0
  145.9280  141.2940  153.7830 H   0  0  0  0  0  0  0  0  0  0  0  0
  146.2690  138.6870  153.0830 C   0  0  0  0  0  2  0  0  0  0  0  0
  145.8630  138.5120  154.4790 N   0  0  0  0  0  4  0  0  0  0  0  0
  145.4480  137.5880  154.5910 H   0  0  0  0  0  0  0  0  0  0  0  0
  145.1880  139.2390  154.7140 H   0  0  0  0  0  0  0  0  0  0  0  0
  147.0050  138.6340  155.3750 C   0  0  0  0  0  2  0  0  0  0  0  0
  147.9350  137.4510  155.1650 C   0  0  0  0  0  1  0  0  0  0  0  0
  1  9  1  0  0  0  0
  1  6  1  0  0  0  0
  2  1  2  0  0  0  0
  3  2  1  0  0  0  0
  3  4  2  0  0  0  0
  4  5  1  0  0  0  0
  5  6  2  0  0  0  0
  5  7  1  0  0  0  0
  7  8  1  0  0  0  0
 10 11  2  0  0  0  0
 12  9  1  0  0  0  0
 12 10  1  0  0  0  0
 13 12  1  0  0  0  0
 14 10  1  0  0  0  0
 15 14  1  0  0  0  0
 16 15  1  0  0  0  0
 17 16  1  0  0  0  0
 18 17  1  0  0  0  0
 19 18  1  0  0  0  0
 21 20  1  0  0  0  0
 21 19  1  0  0  0  0
 22  4  1  0  0  0  0
 23 22  1  0  0  0  0
 24 23  1  1  0  0  0
 24 27  1  0  0  0  0
 24 25  1  0  0  0  0
 25 26  1  0  0  0  0
 27 28  1  0  0  0  0
 28 29  1  0  0  0  0
 28 30  1  0  0  0  0
 28 31  1  0  0  0  0
 32 31  1  0  0  0  0
M  END
>  <MODEL>
8

>  <REMARK>
 VINA RESULT:    -6.144      2.508     10.018
 INTER + INTRA:         -13.763
 INTER:                 -11.659
 INTRA:                  -2.104
 UNBOUND:                -1.694
  Name = CHEMBL435308
  20 active torsions:
  status: ('A' for Active; 'I' for Inactive)
    1  A    between atoms: C_1  and  C_2
    2  A    between atoms: C_2  and  C_3
    3  A    between atoms: C_3  and  C_4
    4  A    between atoms: C_4  and  C_5
    5  A    between atoms: C_5  and  C_6
    6  A    between atoms: C_6  and  C_7
    7  A    between atoms: C_7  and  C_8
    8  A    between atoms: C_8  and  C_9
    9  A    between atoms: N_11  and  C_12
   10  A    between atoms: C_12  and  C_13
   11  A    between atoms: C_16  and  O_17
   12  A    between atoms: O_17  and  C_18
   13  A    between atoms: C_18  and  C_19
   14  A    between atoms: C_19  and  O_20
   15  A    between atoms: C_19  and  C_21
   16  A    between atoms: C_21  and  N_22
   17  A    between atoms: N_22  and  C_23
   18  A    between atoms: C_23  and  C_24
   19  A    between atoms: C_25  and  O_26
   20  A    between atoms: O_26  and  C_27
                            x       y       z     vdW  Elec       q    Type
                         _______ _______ _______ _____ _____    ______ ____

>  <TORSDO>
F 17

>  <SCORE>
-6.144

>  <RMSD_LB>
2.508

>  <RMSD_UB>
10.018

$$$$
CHEMBL435308
 OpenBabel10172500133D

 32 32  0  0  1  0  0  0  0  0999 V2000
  135.3350  135.2780  153.4940 C   0  0  0  0  0  0  0  0  0  0  0  0
  134.3340  134.3670  153.1530 C   0  0  0  0  0  3  0  0  0  0  0  0
  134.1980  133.9140  151.8370 C   0  0  0  0  0  3  0  0  0  0  0  0
  135.0580  134.3700  150.8300 C   0  0  0  0  0  0  0  0  0  0  0  0
  136.0650  135.2910  151.1600 C   0  0  0  0  0  0  0  0  0  0  0  0
  136.2180  135.7090  152.4930 C   0  0  0  0  0  3  0  0  0  0  0  0
  136.9900  135.8430  150.3060 O   0  0  0  0  0  0  0  0  0  0  0  0
  136.6160  137.0320  149.6230 C   0  0  0  0  0  1  0  0  0  0  0  0
  135.4120  135.8280  154.8940 C   0  0  0  0  0  2  0  0  0  0  0  0
  137.5250  136.6130  155.8220 C   0  0  0  0  0  0  0  0  0  0  0  0
  137.7130  135.5440  156.3990 O   0  0  0  0  0  0  0  0  0  0  0  0
  136.4070  136.8570  155.0630 N   0  0  0  0  0  0  0  0  0  0  0  0
  136.2850  137.7350  154.6340 H   0  0  0  0  0  0  0  0  0  0  0  0
  138.4830  137.7830  155.9140 C   0  0  0  0  0  2  0  0  0  0  0  0
  138.6410  138.4630  154.5550 C   0  0  0  0  0  2  0  0  0  0  0  0
  140.0500  138.2950  153.9940 C   0  0  0  0  0  2  0  0  0  0  0  0
  139.9900  137.8800  152.5240 C   0  0  0  0  0  2  0  0  0  0  0  0
  139.1910  138.8780  151.6920 C   0  0  0  0  0  2  0  0  0  0  0  0
  140.0810  139.5420  150.6420 C   0  0  0  0  0  2  0  0  0  0  0  0
  138.1360  140.3950  149.2990 C   0  0  0  0  0  1  0  0  0  0  0  0
  139.4050  140.7720  150.0430 C   0  0  0  0  0  2  0  0  0  0  0  0
  134.9790  133.9620  149.5320 O   0  0  0  0  0  0  0  0  0  0  0  0
  133.9050  133.1030  149.1370 C   0  0  0  0  0  2  0  0  0  0  0  0
  133.4100  133.5960  147.7680 C   0  0  1  0  0  3  0  0  0  0  0  0
  131.9770  133.5440  147.7200 O   0  0  0  0  0  0  0  0  0  0  0  0
  131.6320  133.2780  148.5860 H   0  0  0  0  0  0  0  0  0  0  0  0
  133.8760  135.0360  147.4830 C   0  0  0  0  0  2  0  0  0  0  0  0
  132.8280  135.8080  146.8120 N   0  0  0  0  0  4  0  0  0  0  0  0
  131.9550  135.2820  146.8460 H   0  0  0  0  0  0  0  0  0  0  0  0
  133.1130  135.9690  145.8460 H   0  0  0  0  0  0  0  0  0  0  0  0
  132.6330  137.0980  147.4600 C   0  0  0  0  0  2  0  0  0  0  0  0
  132.8390  136.9440  148.9570 C   0  0  0  0  0  1  0  0  0  0  0  0
  1  9  1  0  0  0  0
  2  1  1  0  0  0  0
  3  2  2  0  0  0  0
  4  5  2  0  0  0  0
  4  3  1  0  0  0  0
  5  6  1  0  0  0  0
  6  1  2  0  0  0  0
  7  5  1  0  0  0  0
  8  7  1  0  0  0  0
  9 12  1  0  0  0  0
 10 14  1  0  0  0  0
 10 11  2  0  0  0  0
 12 10  1  0  0  0  0
 13 12  1  0  0  0  0
 15 14  1  0  0  0  0
 16 15  1  0  0  0  0
 17 16  1  0  0  0  0
 18 17  1  0  0  0  0
 19 18  1  0  0  0  0
 20 21  1  0  0  0  0
 21 19  1  0  0  0  0
 22  4  1  0  0  0  0
 23 22  1  0  0  0  0
 24 27  1  1  0  0  0
 24 23  1  0  0  0  0
 25 24  1  0  0  0  0
 25 26  1  0  0  0  0
 28 29  1  0  0  0  0
 28 31  1  0  0  0  0
 28 27  1  0  0  0  0
 30 28  1  0  0  0  0
 31 32  1  0  0  0  0
M  END
>  <MODEL>
9

>  <REMARK>
 VINA RESULT:    -6.011      5.030      8.501
 INTER + INTRA:         -13.503
 INTER:                 -11.809
 INTRA:                  -1.694
 UNBOUND:                -1.694
  Name = CHEMBL435308
  20 active torsions:
  status: ('A' for Active; 'I' for Inactive)
    1  A    between atoms: C_1  and  C_2
    2  A    between atoms: C_2  and  C_3
    3  A    between atoms: C_3  and  C_4
    4  A    between atoms: C_4  and  C_5
    5  A    between atoms: C_5  and  C_6
    6  A    between atoms: C_6  and  C_7
    7  A    between atoms: C_7  and  C_8
    8  A    between atoms: C_8  and  C_9
    9  A    between atoms: N_11  and  C_12
   10  A    between atoms: C_12  and  C_13
   11  A    between atoms: C_16  and  O_17
   12  A    between atoms: O_17  and  C_18
   13  A    between atoms: C_18  and  C_19
   14  A    between atoms: C_19  and  O_20
   15  A    between atoms: C_19  and  C_21
   16  A    between atoms: C_21  and  N_22
   17  A    between atoms: N_22  and  C_23
   18  A    between atoms: C_23  and  C_24
   19  A    between atoms: C_25  and  O_26
   20  A    between atoms: O_26  and  C_27
                            x       y       z     vdW  Elec       q    Type
                         _______ _______ _______ _____ _____    ______ ____

>  <TORSDO>
F 17

>  <SCORE>
-6.011

>  <RMSD_LB>
5.030

>  <RMSD_UB>
8.501

$$$$
