CHEMBL5282115
 OpenBabel10172500103D

 30 30  0  0  0  0  0  0  0  0999 V2000
  140.3590  138.4460  154.6310 C   0  0  0  0  0  0  0  0  0  0  0  0
  139.8090  138.3360  153.3520 C   0  0  0  0  0  3  0  0  0  0  0  0
  138.5250  137.8200  153.1660 C   0  0  0  0  0  3  0  0  0  0  0  0
  137.7500  137.3890  154.2520 C   0  0  0  0  0  0  0  0  0  0  0  0
  138.2990  137.4580  155.5410 C   0  0  0  0  0  0  0  0  0  0  0  0
  139.5810  138.0140  155.7200 C   0  0  0  0  0  3  0  0  0  0  0  0
  137.7070  137.0570  156.7150 O   0  0  0  0  0  0  0  0  0  0  0  0
  138.0970  137.7470  157.9010 C   0  0  0  0  0  1  0  0  0  0  0  0
  141.7440  139.0080  154.8490 C   0  0  0  0  0  2  0  0  0  0  0  0
  143.8710  138.3930  153.7620 C   0  0  0  0  0  0  0  0  0  0  0  0
  144.0280  139.4780  153.2300 O   0  0  0  0  0  0  0  0  0  0  0  0
  142.7900  138.0520  154.5580 N   0  0  0  0  0  0  0  0  0  0  0  0
  142.7320  137.1430  154.9330 H   0  0  0  0  0  0  0  0  0  0  0  0
  144.8520  137.2460  153.5800 C   0  0  0  0  0  2  0  0  0  0  0  0
  146.1320  137.4660  154.3820 C   0  0  0  0  0  2  0  0  0  0  0  0
  147.3710  137.5600  153.4900 C   0  0  0  0  0  2  0  0  0  0  0  0
  147.6990  139.0240  153.2090 C   0  0  0  0  0  2  0  0  0  0  0  0
  147.3920  139.9090  154.4120 C   0  0  0  0  0  2  0  0  0  0  0  0
  147.6650  141.3760  154.0830 C   0  0  0  0  0  2  0  0  0  0  0  0
  146.1030  142.2690  152.3300 C   0  0  0  0  0  1  0  0  0  0  0  0
  146.3660  142.1320  153.8210 C   0  0  0  0  0  2  0  0  0  0  0  0
  136.4690  136.9270  154.1130 O   0  0  0  0  0  0  0  0  0  0  0  0
  136.2100  136.0230  153.0440 C   0  0  0  0  0  2  0  0  0  0  0  0
  135.5770  134.7760  153.6380 C   0  0  0  0  0  2  0  0  0  0  0  0
  134.3900  135.1490  154.5160 C   0  0  0  0  0  2  0  0  0  0  0  0
  134.5330  134.5550  155.9120 C   0  0  0  0  0  2  0  0  0  0  0  0
  135.4800  135.3490  156.6840 N   0  0  0  0  0  4  0  0  0  0  0  0
  135.8510  136.0980  156.1000 H   0  0  0  0  0  0  0  0  0  0  0  0
  136.2440  134.7530  157.0020 H   0  0  0  0  0  0  0  0  0  0  0  0
  135.0050  135.7520  157.4930 H   0  0  0  0  0  0  0  0  0  0  0  0
  1  9  1  0  0  0  0
  1  6  1  0  0  0  0
  2  1  2  0  0  0  0
  3  2  1  0  0  0  0
  3  4  2  0  0  0  0
  4  5  1  0  0  0  0
  5  6  2  0  0  0  0
  5  7  1  0  0  0  0
  7  8  1  0  0  0  0
 10 12  1  0  0  0  0
 11 10  2  0  0  0  0
 12  9  1  0  0  0  0
 12 13  1  0  0  0  0
 14 10  1  0  0  0  0
 14 15  1  0  0  0  0
 16 15  1  0  0  0  0
 17 16  1  0  0  0  0
 17 18  1  0  0  0  0
 19 18  1  0  0  0  0
 20 21  1  0  0  0  0
 21 19  1  0  0  0  0
 22  4  1  0  0  0  0
 23 24  1  0  0  0  0
 23 22  1  0  0  0  0
 24 25  1  0  0  0  0
 25 26  1  0  0  0  0
 26 27  1  0  0  0  0
 27 29  1  0  0  0  0
 27 30  1  0  0  0  0
 28 27  1  0  0  0  0
M  END
>  <MODEL>
1

>  <REMARK>
 VINA RESULT:    -6.273      0.000      0.000
 INTER + INTRA:         -13.238
 INTER:                 -11.519
 INTRA:                  -1.718
 UNBOUND:                -1.280
  Name = CHEMBL5282115
  18 active torsions:
  status: ('A' for Active; 'I' for Inactive)
    1  A    between atoms: C_1  and  C_2
    2  A    between atoms: C_2  and  C_3
    3  A    between atoms: C_3  and  C_4
    4  A    between atoms: C_4  and  C_5
    5  A    between atoms: C_5  and  C_6
    6  A    between atoms: C_6  and  C_7
    7  A    between atoms: C_7  and  C_8
    8  A    between atoms: C_8  and  C_9
    9  A    between atoms: N_11  and  C_12
   10  A    between atoms: C_12  and  C_13
   11  A    between atoms: C_16  and  O_17
   12  A    between atoms: O_17  and  C_18
   13  A    between atoms: C_18  and  C_19
   14  A    between atoms: C_19  and  C_20
   15  A    between atoms: C_20  and  C_21
   16  A    between atoms: C_21  and  N_22
   17  A    between atoms: C_23  and  O_24
   18  A    between atoms: O_24  and  C_25
                            x       y       z     vdW  Elec       q    Type
                         _______ _______ _______ _____ _____    ______ ____

>  <TORSDO>
F 16

>  <SCORE>
-6.273

>  <RMSD_LB>
0.000

>  <RMSD_UB>
0.000

$$$$
CHEMBL5282115
 OpenBabel10172500103D

 30 30  0  0  0  0  0  0  0  0999 V2000
  135.5790  135.5820  154.0560 C   0  0  0  0  0  0  0  0  0  0  0  0
  134.7260  134.5020  154.2900 C   0  0  0  0  0  3  0  0  0  0  0  0
  134.2020  133.7590  153.2310 C   0  0  0  0  0  3  0  0  0  0  0  0
  134.5070  134.0760  151.8990 C   0  0  0  0  0  0  0  0  0  0  0  0
  135.3330  135.1800  151.6420 C   0  0  0  0  0  0  0  0  0  0  0  0
  135.8840  135.9000  152.7200 C   0  0  0  0  0  3  0  0  0  0  0  0
  135.7140  135.6590  150.4110 O   0  0  0  0  0  0  0  0  0  0  0  0
  136.9080  135.1150  149.8500 C   0  0  0  0  0  1  0  0  0  0  0  0
  136.1580  136.3910  155.1910 C   0  0  0  0  0  2  0  0  0  0  0  0
  137.8360  138.1980  155.1270 C   0  0  0  0  0  0  0  0  0  0  0  0
  137.0710  139.0580  155.5290 O   0  0  0  0  0  0  0  0  0  0  0  0
  137.4940  136.8730  154.9150 N   0  0  0  0  0  0  0  0  0  0  0  0
  138.1710  136.2470  154.5680 H   0  0  0  0  0  0  0  0  0  0  0  0
  139.2830  138.4960  154.7710 C   0  0  0  0  0  2  0  0  0  0  0  0
  139.6040  138.0970  153.3330 C   0  0  0  0  0  2  0  0  0  0  0  0
  141.1080  138.0090  153.0740 C   0  0  0  0  0  2  0  0  0  0  0  0
  141.3650  137.3540  151.7200 C   0  0  0  0  0  2  0  0  0  0  0  0
  140.1170  137.3640  150.8450 C   0  0  0  0  0  2  0  0  0  0  0  0
  140.3900  136.6730  149.5100 C   0  0  0  0  0  2  0  0  0  0  0  0
  140.5560  137.8900  147.3180 C   0  0  0  0  0  1  0  0  0  0  0  0
  139.6140  137.3390  148.3770 C   0  0  0  0  0  2  0  0  0  0  0  0
  134.0550  133.3400  150.8370 O   0  0  0  0  0  0  0  0  0  0  0  0
  132.7790  133.6750  150.3020 C   0  0  0  0  0  2  0  0  0  0  0  0
  132.8750  133.5820  148.7890 C   0  0  0  0  0  2  0  0  0  0  0  0
  134.0860  132.7530  148.3840 C   0  0  0  0  0  2  0  0  0  0  0  0
  134.6610  133.2340  147.0580 C   0  0  0  0  0  2  0  0  0  0  0  0
  133.5920  133.7910  146.2380 N   0  0  0  0  0  4  0  0  0  0  0  0
  132.9600  134.3330  146.8260 H   0  0  0  0  0  0  0  0  0  0  0  0
  133.0770  133.0320  145.7920 H   0  0  0  0  0  0  0  0  0  0  0  0
  133.9940  134.3960  145.5210 H   0  0  0  0  0  0  0  0  0  0  0  0
  1  2  1  0  0  0  0
  1  9  1  0  0  0  0
  3  2  2  0  0  0  0
  4  3  1  0  0  0  0
  5  4  2  0  0  0  0
  5  6  1  0  0  0  0
  6  1  2  0  0  0  0
  7  5  1  0  0  0  0
  8  7  1  0  0  0  0
 10 11  2  0  0  0  0
 12 10  1  0  0  0  0
 12  9  1  0  0  0  0
 13 12  1  0  0  0  0
 14 10  1  0  0  0  0
 15 14  1  0  0  0  0
 16 15  1  0  0  0  0
 17 16  1  0  0  0  0
 18 17  1  0  0  0  0
 19 18  1  0  0  0  0
 20 21  1  0  0  0  0
 21 19  1  0  0  0  0
 22  4  1  0  0  0  0
 23 22  1  0  0  0  0
 24 23  1  0  0  0  0
 25 24  1  0  0  0  0
 26 25  1  0  0  0  0
 27 28  1  0  0  0  0
 27 26  1  0  0  0  0
 29 27  1  0  0  0  0
 30 27  1  0  0  0  0
M  END
>  <MODEL>
2

>  <REMARK>
 VINA RESULT:    -6.195      4.168      7.070
 INTER + INTRA:         -13.089
 INTER:                 -11.660
 INTRA:                  -1.428
 UNBOUND:                -1.280
  Name = CHEMBL5282115
  18 active torsions:
  status: ('A' for Active; 'I' for Inactive)
    1  A    between atoms: C_1  and  C_2
    2  A    between atoms: C_2  and  C_3
    3  A    between atoms: C_3  and  C_4
    4  A    between atoms: C_4  and  C_5
    5  A    between atoms: C_5  and  C_6
    6  A    between atoms: C_6  and  C_7
    7  A    between atoms: C_7  and  C_8
    8  A    between atoms: C_8  and  C_9
    9  A    between atoms: N_11  and  C_12
   10  A    between atoms: C_12  and  C_13
   11  A    between atoms: C_16  and  O_17
   12  A    between atoms: O_17  and  C_18
   13  A    between atoms: C_18  and  C_19
   14  A    between atoms: C_19  and  C_20
   15  A    between atoms: C_20  and  C_21
   16  A    between atoms: C_21  and  N_22
   17  A    between atoms: C_23  and  O_24
   18  A    between atoms: O_24  and  C_25
                            x       y       z     vdW  Elec       q    Type
                         _______ _______ _______ _____ _____    ______ ____

>  <TORSDO>
F 16

>  <SCORE>
-6.195

>  <RMSD_LB>
4.168

>  <RMSD_UB>
7.070

$$$$
CHEMBL5282115
 OpenBabel10172500103D

 30 30  0  0  0  0  0  0  0  0999 V2000
  137.5970  137.1380  155.6880 C   0  0  0  0  0  0  0  0  0  0  0  0
  138.7080  137.2090  156.5310 C   0  0  0  0  0  3  0  0  0  0  0  0
  139.9190  137.7350  156.0790 C   0  0  0  0  0  3  0  0  0  0  0  0
  140.0650  138.2000  154.7650 C   0  0  0  0  0  0  0  0  0  0  0  0
  138.9710  138.1050  153.8910 C   0  0  0  0  0  0  0  0  0  0  0  0
  137.7440  137.6060  154.3690 C   0  0  0  0  0  3  0  0  0  0  0  0
  138.9340  138.4780  152.5690 O   0  0  0  0  0  0  0  0  0  0  0  0
  138.2640  137.5950  151.6700 C   0  0  0  0  0  1  0  0  0  0  0  0
  136.2780  136.5780  156.1640 C   0  0  0  0  0  2  0  0  0  0  0  0
  134.8490  135.4890  154.4740 C   0  0  0  0  0  0  0  0  0  0  0  0
  134.2220  136.5000  154.2090 O   0  0  0  0  0  0  0  0  0  0  0  0
  135.8610  135.4120  155.4180 N   0  0  0  0  0  0  0  0  0  0  0  0
  136.3020  134.5470  155.5840 H   0  0  0  0  0  0  0  0  0  0  0  0
  134.5630  134.1540  153.8070 C   0  0  0  0  0  2  0  0  0  0  0  0
  134.6410  134.2540  152.2860 C   0  0  0  0  0  2  0  0  0  0  0  0
  133.2600  134.2880  151.6320 C   0  0  0  0  0  2  0  0  0  0  0  0
  133.1390  135.5160  150.7350 C   0  0  0  0  0  2  0  0  0  0  0  0
  133.5990  135.2200  149.3110 C   0  0  0  0  0  2  0  0  0  0  0  0
  132.7060  134.1600  148.6680 C   0  0  0  0  0  2  0  0  0  0  0  0
  134.2770  132.1980  148.6880 C   0  0  0  0  0  1  0  0  0  0  0  0
  133.5260  133.1930  147.8180 C   0  0  0  0  0  2  0  0  0  0  0  0
  141.2200  138.7700  154.3020 O   0  0  0  0  0  0  0  0  0  0  0  0
  142.3630  137.9290  154.1800 C   0  0  0  0  0  2  0  0  0  0  0  0
  143.0030  138.2140  152.8320 C   0  0  0  0  0  2  0  0  0  0  0  0
  142.2540  137.4860  151.7230 C   0  0  0  0  0  2  0  0  0  0  0  0
  141.8000  138.4560  150.6400 C   0  0  0  0  0  2  0  0  0  0  0  0
  141.3370  139.6920  151.2570 N   0  0  0  0  0  4  0  0  0  0  0  0
  140.5140  140.0310  150.7620 H   0  0  0  0  0  0  0  0  0  0  0  0
  142.0770  140.3920  151.2100 H   0  0  0  0  0  0  0  0  0  0  0  0
  141.0990  139.5150  152.2340 H   0  0  0  0  0  0  0  0  0  0  0  0
  1  9  1  0  0  0  0
  1  2  1  0  0  0  0
  3  2  2  0  0  0  0
  4  3  1  0  0  0  0
  5  6  1  0  0  0  0
  5  4  2  0  0  0  0
  6  1  2  0  0  0  0
  7  5  1  0  0  0  0
  8  7  1  0  0  0  0
 10 12  1  0  0  0  0
 11 10  2  0  0  0  0
 12 13  1  0  0  0  0
 12  9  1  0  0  0  0
 14 10  1  0  0  0  0
 15 14  1  0  0  0  0
 16 15  1  0  0  0  0
 17 16  1  0  0  0  0
 18 17  1  0  0  0  0
 19 18  1  0  0  0  0
 21 19  1  0  0  0  0
 21 20  1  0  0  0  0
 22  4  1  0  0  0  0
 23 22  1  0  0  0  0
 24 23  1  0  0  0  0
 25 24  1  0  0  0  0
 26 27  1  0  0  0  0
 26 25  1  0  0  0  0
 27 30  1  0  0  0  0
 28 27  1  0  0  0  0
 29 27  1  0  0  0  0
M  END
>  <MODEL>
3

>  <REMARK>
 VINA RESULT:    -6.179      3.048      9.947
 INTER + INTRA:         -13.059
 INTER:                 -11.133
 INTRA:                  -1.925
 UNBOUND:                -1.280
  Name = CHEMBL5282115
  18 active torsions:
  status: ('A' for Active; 'I' for Inactive)
    1  A    between atoms: C_1  and  C_2
    2  A    between atoms: C_2  and  C_3
    3  A    between atoms: C_3  and  C_4
    4  A    between atoms: C_4  and  C_5
    5  A    between atoms: C_5  and  C_6
    6  A    between atoms: C_6  and  C_7
    7  A    between atoms: C_7  and  C_8
    8  A    between atoms: C_8  and  C_9
    9  A    between atoms: N_11  and  C_12
   10  A    between atoms: C_12  and  C_13
   11  A    between atoms: C_16  and  O_17
   12  A    between atoms: O_17  and  C_18
   13  A    between atoms: C_18  and  C_19
   14  A    between atoms: C_19  and  C_20
   15  A    between atoms: C_20  and  C_21
   16  A    between atoms: C_21  and  N_22
   17  A    between atoms: C_23  and  O_24
   18  A    between atoms: O_24  and  C_25
                            x       y       z     vdW  Elec       q    Type
                         _______ _______ _______ _____ _____    ______ ____

>  <TORSDO>
F 16

>  <SCORE>
-6.179

>  <RMSD_LB>
3.048

>  <RMSD_UB>
9.947

$$$$
CHEMBL5282115
 OpenBabel10172500103D

 30 30  0  0  0  0  0  0  0  0999 V2000
  142.6170  137.6670  152.6430 C   0  0  0  0  0  0  0  0  0  0  0  0
  141.6050  137.4420  151.7080 C   0  0  0  0  0  3  0  0  0  0  0  0
  140.2660  137.6630  152.0340 C   0  0  0  0  0  3  0  0  0  0  0  0
  139.8910  138.1080  153.3110 C   0  0  0  0  0  0  0  0  0  0  0  0
  140.8910  138.3060  154.2750 C   0  0  0  0  0  0  0  0  0  0  0  0
  142.2420  138.1150  153.9230 C   0  0  0  0  0  3  0  0  0  0  0  0
  140.7160  138.7070  155.5780 O   0  0  0  0  0  0  0  0  0  0  0  0
  140.5400  137.6770  156.5500 C   0  0  0  0  0  1  0  0  0  0  0  0
  144.0710  137.4400  152.3030 C   0  0  0  0  0  2  0  0  0  0  0  0
  146.2840  138.4000  152.8190 C   0  0  0  0  0  0  0  0  0  0  0  0
  146.8820  137.3460  152.6880 O   0  0  0  0  0  0  0  0  0  0  0  0
  144.9150  138.5560  152.6670 N   0  0  0  0  0  0  0  0  0  0  0  0
  144.5100  139.4420  152.8120 H   0  0  0  0  0  0  0  0  0  0  0  0
  146.9830  139.6920  153.2060 C   0  0  0  0  0  2  0  0  0  0  0  0
  146.0370  140.6530  153.9210 C   0  0  0  0  0  2  0  0  0  0  0  0
  146.1870  142.0930  153.4300 C   0  0  0  0  0  2  0  0  0  0  0  0
  146.9070  142.1120  152.0840 C   0  0  0  0  0  2  0  0  0  0  0  0
  146.0100  142.6470  150.9740 C   0  0  0  0  0  2  0  0  0  0  0  0
  146.2910  141.9230  149.6590 C   0  0  0  0  0  2  0  0  0  0  0  0
  146.7240  139.4760  149.2850 C   0  0  0  0  0  1  0  0  0  0  0  0
  145.6870  140.5210  149.6630 C   0  0  0  0  0  2  0  0  0  0  0  0
  138.5950  138.3850  153.6510 O   0  0  0  0  0  0  0  0  0  0  0  0
  137.6590  137.3140  153.5930 C   0  0  0  0  0  2  0  0  0  0  0  0
  137.2440  136.9870  155.0180 C   0  0  0  0  0  2  0  0  0  0  0  0
  136.3310  135.7690  155.0390 C   0  0  0  0  0  2  0  0  0  0  0  0
  135.6090  135.6020  153.7080 C   0  0  0  0  0  2  0  0  0  0  0  0
  134.1800  135.8120  153.9000 N   0  0  0  0  0  4  0  0  0  0  0  0
  133.6840  135.5800  153.0400 H   0  0  0  0  0  0  0  0  0  0  0  0
  134.0100  136.7880  154.1400 H   0  0  0  0  0  0  0  0  0  0  0  0
  133.8480  135.2130  154.6570 H   0  0  0  0  0  0  0  0  0  0  0  0
  1  6  1  0  0  0  0
  2  3  1  0  0  0  0
  2  1  2  0  0  0  0
  3  4  2  0  0  0  0
  4 22  1  0  0  0  0
  4  5  1  0  0  0  0
  5  7  1  0  0  0  0
  6  5  2  0  0  0  0
  7  8  1  0  0  0  0
  9  1  1  0  0  0  0
  9 12  1  0  0  0  0
 10 14  1  0  0  0  0
 11 10  2  0  0  0  0
 12 13  1  0  0  0  0
 12 10  1  0  0  0  0
 14 15  1  0  0  0  0
 16 15  1  0  0  0  0
 17 16  1  0  0  0  0
 18 17  1  0  0  0  0
 19 21  1  0  0  0  0
 19 18  1  0  0  0  0
 20 21  1  0  0  0  0
 23 22  1  0  0  0  0
 23 24  1  0  0  0  0
 24 25  1  0  0  0  0
 26 27  1  0  0  0  0
 26 25  1  0  0  0  0
 27 29  1  0  0  0  0
 27 30  1  0  0  0  0
 28 27  1  0  0  0  0
M  END
>  <MODEL>
4

>  <REMARK>
 VINA RESULT:    -6.142      2.131      3.318
 INTER + INTRA:         -12.987
 INTER:                 -11.298
 INTRA:                  -1.689
 UNBOUND:                -1.280
  Name = CHEMBL5282115
  18 active torsions:
  status: ('A' for Active; 'I' for Inactive)
    1  A    between atoms: C_1  and  C_2
    2  A    between atoms: C_2  and  C_3
    3  A    between atoms: C_3  and  C_4
    4  A    between atoms: C_4  and  C_5
    5  A    between atoms: C_5  and  C_6
    6  A    between atoms: C_6  and  C_7
    7  A    between atoms: C_7  and  C_8
    8  A    between atoms: C_8  and  C_9
    9  A    between atoms: N_11  and  C_12
   10  A    between atoms: C_12  and  C_13
   11  A    between atoms: C_16  and  O_17
   12  A    between atoms: O_17  and  C_18
   13  A    between atoms: C_18  and  C_19
   14  A    between atoms: C_19  and  C_20
   15  A    between atoms: C_20  and  C_21
   16  A    between atoms: C_21  and  N_22
   17  A    between atoms: C_23  and  O_24
   18  A    between atoms: O_24  and  C_25
                            x       y       z     vdW  Elec       q    Type
                         _______ _______ _______ _____ _____    ______ ____

>  <TORSDO>
F 16

>  <SCORE>
-6.142

>  <RMSD_LB>
2.131

>  <RMSD_UB>
3.318

$$$$
CHEMBL5282115
 OpenBabel10172500103D

 30 30  0  0  0  0  0  0  0  0999 V2000
  142.1950  137.8090  153.1630 C   0  0  0  0  0  0  0  0  0  0  0  0
  141.8540  138.1290  154.4780 C   0  0  0  0  0  3  0  0  0  0  0  0
  140.5290  138.3880  154.8320 C   0  0  0  0  0  3  0  0  0  0  0  0
  139.5000  138.3460  153.8810 C   0  0  0  0  0  0  0  0  0  0  0  0
  139.8270  138.0620  152.5470 C   0  0  0  0  0  0  0  0  0  0  0  0
  141.1620  137.7660  152.2080 C   0  0  0  0  0  3  0  0  0  0  0  0
  138.9660  138.0080  151.4770 O   0  0  0  0  0  0  0  0  0  0  0  0
  139.3020  137.1040  150.4250 C   0  0  0  0  0  1  0  0  0  0  0  0
  143.6230  137.5190  152.7650 C   0  0  0  0  0  2  0  0  0  0  0  0
  145.6990  137.4110  154.0930 C   0  0  0  0  0  0  0  0  0  0  0  0
  145.9490  136.2570  153.7930 O   0  0  0  0  0  0  0  0  0  0  0  0
  144.5880  138.1180  153.6610 N   0  0  0  0  0  0  0  0  0  0  0  0
  144.4520  139.0430  153.9700 H   0  0  0  0  0  0  0  0  0  0  0  0
  146.5820  138.2200  155.0290 C   0  0  0  0  0  2  0  0  0  0  0  0
  146.8000  139.6400  154.5120 C   0  0  0  0  0  2  0  0  0  0  0  0
  148.2260  139.8670  154.0110 C   0  0  0  0  0  2  0  0  0  0  0  0
  148.5670  141.3530  154.0670 C   0  0  0  0  0  2  0  0  0  0  0  0
  148.9800  141.8880  152.7000 C   0  0  0  0  0  2  0  0  0  0  0  0
  148.1300  141.2590  151.5980 C   0  0  0  0  0  2  0  0  0  0  0  0
  145.8410  142.2970  151.5910 C   0  0  0  0  0  1  0  0  0  0  0  0
  147.2180  142.2950  150.9470 C   0  0  0  0  0  2  0  0  0  0  0  0
  138.1840  138.5440  154.2000 O   0  0  0  0  0  0  0  0  0  0  0  0
  137.7580  138.1490  155.5000 C   0  0  0  0  0  2  0  0  0  0  0  0
  137.2490  136.7210  155.4040 C   0  0  0  0  0  2  0  0  0  0  0  0
  137.6970  135.9140  156.6160 C   0  0  0  0  0  2  0  0  0  0  0  0
  136.6780  136.0110  157.7440 C   0  0  0  0  0  2  0  0  0  0  0  0
  135.5190  135.1880  157.4250 N   0  0  0  0  0  4  0  0  0  0  0  0
  135.3530  134.5260  158.1820 H   0  0  0  0  0  0  0  0  0  0  0  0
  135.6930  134.6790  156.5580 H   0  0  0  0  0  0  0  0  0  0  0  0
  134.7000  135.7860  157.3090 H   0  0  0  0  0  0  0  0  0  0  0  0
  1  2  1  0  0  0  0
  2  3  2  0  0  0  0
  4 22  1  0  0  0  0
  4  3  1  0  0  0  0
  5  4  2  0  0  0  0
  6  5  1  0  0  0  0
  6  1  2  0  0  0  0
  7  5  1  0  0  0  0
  8  7  1  0  0  0  0
  9  1  1  0  0  0  0
  9 12  1  0  0  0  0
 10 14  1  0  0  0  0
 11 10  2  0  0  0  0
 12 13  1  0  0  0  0
 12 10  1  0  0  0  0
 15 14  1  0  0  0  0
 16 17  1  0  0  0  0
 16 15  1  0  0  0  0
 18 17  1  0  0  0  0
 19 18  1  0  0  0  0
 21 20  1  0  0  0  0
 21 19  1  0  0  0  0
 22 23  1  0  0  0  0
 24 23  1  0  0  0  0
 24 25  1  0  0  0  0
 25 26  1  0  0  0  0
 27 26  1  0  0  0  0
 27 28  1  0  0  0  0
 29 27  1  0  0  0  0
 30 27  1  0  0  0  0
M  END
>  <MODEL>
5

>  <REMARK>
 VINA RESULT:    -6.118      1.956      3.249
 INTER + INTRA:         -12.943
 INTER:                 -11.705
 INTRA:                  -1.238
 UNBOUND:                -1.280
  Name = CHEMBL5282115
  18 active torsions:
  status: ('A' for Active; 'I' for Inactive)
    1  A    between atoms: C_1  and  C_2
    2  A    between atoms: C_2  and  C_3
    3  A    between atoms: C_3  and  C_4
    4  A    between atoms: C_4  and  C_5
    5  A    between atoms: C_5  and  C_6
    6  A    between atoms: C_6  and  C_7
    7  A    between atoms: C_7  and  C_8
    8  A    between atoms: C_8  and  C_9
    9  A    between atoms: N_11  and  C_12
   10  A    between atoms: C_12  and  C_13
   11  A    between atoms: C_16  and  O_17
   12  A    between atoms: O_17  and  C_18
   13  A    between atoms: C_18  and  C_19
   14  A    between atoms: C_19  and  C_20
   15  A    between atoms: C_20  and  C_21
   16  A    between atoms: C_21  and  N_22
   17  A    between atoms: C_23  and  O_24
   18  A    between atoms: O_24  and  C_25
                            x       y       z     vdW  Elec       q    Type
                         _______ _______ _______ _____ _____    ______ ____

>  <TORSDO>
F 16

>  <SCORE>
-6.118

>  <RMSD_LB>
1.956

>  <RMSD_UB>
3.249

$$$$
CHEMBL5282115
 OpenBabel10172500103D

 30 30  0  0  0  0  0  0  0  0999 V2000
  144.5000  137.3250  153.1360 C   0  0  0  0  0  0  0  0  0  0  0  0
  144.7320  136.9920  151.8000 C   0  0  0  0  0  3  0  0  0  0  0  0
  143.7120  137.0830  150.8510 C   0  0  0  0  0  3  0  0  0  0  0  0
  142.4220  137.5010  151.2070 C   0  0  0  0  0  0  0  0  0  0  0  0
  142.1600  137.8050  152.5520 C   0  0  0  0  0  0  0  0  0  0  0  0
  143.2060  137.7440  153.4930 C   0  0  0  0  0  3  0  0  0  0  0  0
  140.9580  138.1990  153.0920 O   0  0  0  0  0  0  0  0  0  0  0  0
  140.9440  138.4840  154.4900 C   0  0  0  0  0  1  0  0  0  0  0  0
  145.5950  137.2380  154.1730 C   0  0  0  0  0  2  0  0  0  0  0  0
  147.3170  138.7630  155.0640 C   0  0  0  0  0  0  0  0  0  0  0  0
  147.1130  138.4710  156.2300 O   0  0  0  0  0  0  0  0  0  0  0  0
  146.6270  138.2340  153.9850 N   0  0  0  0  0  0  0  0  0  0  0  0
  146.8420  138.5420  153.0750 H   0  0  0  0  0  0  0  0  0  0  0  0
  148.3540  139.7930  154.6510 C   0  0  0  0  0  2  0  0  0  0  0  0
  147.7050  141.0360  154.0460 C   0  0  0  0  0  2  0  0  0  0  0  0
  148.5750  141.6830  152.9680 C   0  0  0  0  0  2  0  0  0  0  0  0
  147.7260  142.0160  151.7450 C   0  0  0  0  0  2  0  0  0  0  0  0
  146.3170  142.4460  152.1390 C   0  0  0  0  0  2  0  0  0  0  0  0
  145.3560  142.2830  150.9630 C   0  0  0  0  0  2  0  0  0  0  0  0
  144.3000  140.4390  149.6220 C   0  0  0  0  0  1  0  0  0  0  0  0
  144.6440  140.9340  151.0170 C   0  0  0  0  0  2  0  0  0  0  0  0
  141.4120  137.6520  150.2970 O   0  0  0  0  0  0  0  0  0  0  0  0
  141.0530  136.5140  149.5200 C   0  0  0  0  0  2  0  0  0  0  0  0
  139.5780  136.6380  149.1750 C   0  0  0  0  0  2  0  0  0  0  0  0
  138.7570  136.8850  150.4340 C   0  0  0  0  0  2  0  0  0  0  0  0
  138.0650  138.2400  150.3790 C   0  0  0  0  0  2  0  0  0  0  0  0
  138.8040  139.1970  151.1920 N   0  0  0  0  0  4  0  0  0  0  0  0
  138.1970  139.5590  151.9270 H   0  0  0  0  0  0  0  0  0  0  0  0
  139.1240  139.9660  150.6050 H   0  0  0  0  0  0  0  0  0  0  0  0
  139.6090  138.7340  151.6140 H   0  0  0  0  0  0  0  0  0  0  0  0
  1  6  1  0  0  0  0
  1  9  1  0  0  0  0
  2  1  2  0  0  0  0
  3  4  2  0  0  0  0
  3  2  1  0  0  0  0
  4  5  1  0  0  0  0
  5  7  1  0  0  0  0
  5  6  2  0  0  0  0
  7  8  1  0  0  0  0
 10 11  2  0  0  0  0
 12  9  1  0  0  0  0
 12 10  1  0  0  0  0
 13 12  1  0  0  0  0
 14 10  1  0  0  0  0
 15 14  1  0  0  0  0
 16 15  1  0  0  0  0
 17 18  1  0  0  0  0
 17 16  1  0  0  0  0
 19 21  1  0  0  0  0
 19 18  1  0  0  0  0
 20 21  1  0  0  0  0
 22  4  1  0  0  0  0
 23 22  1  0  0  0  0
 24 23  1  0  0  0  0
 24 25  1  0  0  0  0
 26 25  1  0  0  0  0
 26 27  1  0  0  0  0
 27 30  1  0  0  0  0
 27 28  1  0  0  0  0
 29 27  1  0  0  0  0
M  END
>  <MODEL>
6

>  <REMARK>
 VINA RESULT:    -6.116      3.563      5.013
 INTER + INTRA:         -12.938
 INTER:                 -10.746
 INTRA:                  -2.193
 UNBOUND:                -1.280
  Name = CHEMBL5282115
  18 active torsions:
  status: ('A' for Active; 'I' for Inactive)
    1  A    between atoms: C_1  and  C_2
    2  A    between atoms: C_2  and  C_3
    3  A    between atoms: C_3  and  C_4
    4  A    between atoms: C_4  and  C_5
    5  A    between atoms: C_5  and  C_6
    6  A    between atoms: C_6  and  C_7
    7  A    between atoms: C_7  and  C_8
    8  A    between atoms: C_8  and  C_9
    9  A    between atoms: N_11  and  C_12
   10  A    between atoms: C_12  and  C_13
   11  A    between atoms: C_16  and  O_17
   12  A    between atoms: O_17  and  C_18
   13  A    between atoms: C_18  and  C_19
   14  A    between atoms: C_19  and  C_20
   15  A    between atoms: C_20  and  C_21
   16  A    between atoms: C_21  and  N_22
   17  A    between atoms: C_23  and  O_24
   18  A    between atoms: O_24  and  C_25
                            x       y       z     vdW  Elec       q    Type
                         _______ _______ _______ _____ _____    ______ ____

>  <TORSDO>
F 16

>  <SCORE>
-6.116

>  <RMSD_LB>
3.563

>  <RMSD_UB>
5.013

$$$$
CHEMBL5282115
 OpenBabel10172500103D

 30 30  0  0  0  0  0  0  0  0999 V2000
  143.4530  137.0000  151.2490 C   0  0  0  0  0  0  0  0  0  0  0  0
  143.0010  136.5230  150.0180 C   0  0  0  0  0  3  0  0  0  0  0  0
  141.6410  136.5240  149.7040 C   0  0  0  0  0  3  0  0  0  0  0  0
  140.6840  136.9950  150.6150 C   0  0  0  0  0  0  0  0  0  0  0  0
  141.1160  137.4450  151.8720 C   0  0  0  0  0  0  0  0  0  0  0  0
  142.4940  137.4730  152.1630 C   0  0  0  0  0  3  0  0  0  0  0  0
  140.3290  137.9100  152.8990 O   0  0  0  0  0  0  0  0  0  0  0  0
  141.0020  138.5140  154.0030 C   0  0  0  0  0  1  0  0  0  0  0  0
  144.9220  137.0120  151.6010 C   0  0  0  0  0  2  0  0  0  0  0  0
  145.7950  137.5720  153.8390 C   0  0  0  0  0  0  0  0  0  0  0  0
  146.0260  136.4160  154.1470 O   0  0  0  0  0  0  0  0  0  0  0  0
  145.2460  137.9730  152.6320 N   0  0  0  0  0  0  0  0  0  0  0  0
  145.0720  138.9300  152.4730 H   0  0  0  0  0  0  0  0  0  0  0  0
  146.0560  138.7350  154.7820 C   0  0  0  0  0  2  0  0  0  0  0  0
  147.5390  138.8640  155.1210 C   0  0  0  0  0  2  0  0  0  0  0  0
  148.3380  139.5340  154.0020 C   0  0  0  0  0  2  0  0  0  0  0  0
  148.5920  140.9980  154.3490 C   0  0  0  0  0  2  0  0  0  0  0  0
  147.7230  141.9320  153.5150 C   0  0  0  0  0  2  0  0  0  0  0  0
  148.1890  141.9460  152.0610 C   0  0  0  0  0  2  0  0  0  0  0  0
  145.7310  142.4270  151.8570 C   0  0  0  0  0  1  0  0  0  0  0  0
  147.0080  142.0860  151.1050 C   0  0  0  0  0  2  0  0  0  0  0  0
  139.3490  137.0600  150.3230 O   0  0  0  0  0  0  0  0  0  0  0  0
  138.9850  137.4310  148.9980 C   0  0  0  0  0  2  0  0  0  0  0  0
  139.4950  138.8420  148.7590 C   0  0  0  0  0  2  0  0  0  0  0  0
  138.4720  139.8650  149.2350 C   0  0  0  0  0  2  0  0  0  0  0  0
  139.1220  140.9130  150.1300 C   0  0  0  0  0  2  0  0  0  0  0  0
  139.1170  140.4460  151.5090 N   0  0  0  0  0  4  0  0  0  0  0  0
  138.8410  139.4650  151.5350 H   0  0  0  0  0  0  0  0  0  0  0  0
  138.4570  141.0010  152.0540 H   0  0  0  0  0  0  0  0  0  0  0  0
  140.0530  140.5470  151.9050 H   0  0  0  0  0  0  0  0  0  0  0  0
  1  9  1  0  0  0  0
  1  6  1  0  0  0  0
  2  1  2  0  0  0  0
  3  2  1  0  0  0  0
  3  4  2  0  0  0  0
  4  5  1  0  0  0  0
  5  6  2  0  0  0  0
  5  7  1  0  0  0  0
  7  8  1  0  0  0  0
  9 12  1  0  0  0  0
 10 11  2  0  0  0  0
 10 14  1  0  0  0  0
 12 10  1  0  0  0  0
 13 12  1  0  0  0  0
 14 15  1  0  0  0  0
 16 17  1  0  0  0  0
 16 15  1  0  0  0  0
 18 17  1  0  0  0  0
 19 18  1  0  0  0  0
 21 20  1  0  0  0  0
 21 19  1  0  0  0  0
 22  4  1  0  0  0  0
 23 22  1  0  0  0  0
 24 23  1  0  0  0  0
 24 25  1  0  0  0  0
 25 26  1  0  0  0  0
 26 27  1  0  0  0  0
 27 28  1  0  0  0  0
 27 30  1  0  0  0  0
 27 29  1  0  0  0  0
M  END
>  <MODEL>
7

>  <REMARK>
 VINA RESULT:    -6.106      3.872      4.827
 INTER + INTRA:         -12.920
 INTER:                 -11.374
 INTRA:                  -1.545
 UNBOUND:                -1.280
  Name = CHEMBL5282115
  18 active torsions:
  status: ('A' for Active; 'I' for Inactive)
    1  A    between atoms: C_1  and  C_2
    2  A    between atoms: C_2  and  C_3
    3  A    between atoms: C_3  and  C_4
    4  A    between atoms: C_4  and  C_5
    5  A    between atoms: C_5  and  C_6
    6  A    between atoms: C_6  and  C_7
    7  A    between atoms: C_7  and  C_8
    8  A    between atoms: C_8  and  C_9
    9  A    between atoms: N_11  and  C_12
   10  A    between atoms: C_12  and  C_13
   11  A    between atoms: C_16  and  O_17
   12  A    between atoms: O_17  and  C_18
   13  A    between atoms: C_18  and  C_19
   14  A    between atoms: C_19  and  C_20
   15  A    between atoms: C_20  and  C_21
   16  A    between atoms: C_21  and  N_22
   17  A    between atoms: C_23  and  O_24
   18  A    between atoms: O_24  and  C_25
                            x       y       z     vdW  Elec       q    Type
                         _______ _______ _______ _____ _____    ______ ____

>  <TORSDO>
F 16

>  <SCORE>
-6.106

>  <RMSD_LB>
3.872

>  <RMSD_UB>
4.827

$$$$
CHEMBL5282115
 OpenBabel10172500103D

 30 30  0  0  0  0  0  0  0  0999 V2000
  140.6800  138.4170  153.5240 C   0  0  0  0  0  0  0  0  0  0  0  0
  141.1620  137.9350  152.3050 C   0  0  0  0  0  3  0  0  0  0  0  0
  142.5220  137.9910  151.9990 C   0  0  0  0  0  3  0  0  0  0  0  0
  143.4490  138.5400  152.8980 C   0  0  0  0  0  0  0  0  0  0  0  0
  142.9790  139.0630  154.1130 C   0  0  0  0  0  0  0  0  0  0  0  0
  141.6090  138.9670  154.4260 C   0  0  0  0  0  3  0  0  0  0  0  0
  143.7260  139.6630  155.0980 O   0  0  0  0  0  0  0  0  0  0  0  0
  143.0200  140.1260  156.2490 C   0  0  0  0  0  1  0  0  0  0  0  0
  139.2120  138.3570  153.8720 C   0  0  0  0  0  2  0  0  0  0  0  0
  137.8330  138.0700  155.8980 C   0  0  0  0  0  0  0  0  0  0  0  0
  136.9840  138.8740  155.5540 O   0  0  0  0  0  0  0  0  0  0  0  0
  138.9650  137.7530  155.1630 N   0  0  0  0  0  0  0  0  0  0  0  0
  139.6120  137.1060  155.5260 H   0  0  0  0  0  0  0  0  0  0  0  0
  137.7660  137.3290  157.2220 C   0  0  0  0  0  2  0  0  0  0  0  0
  137.2970  135.8880  157.0390 C   0  0  0  0  0  2  0  0  0  0  0  0
  135.7940  135.7290  157.2690 C   0  0  0  0  0  2  0  0  0  0  0  0
  135.1560  135.0290  156.0720 C   0  0  0  0  0  2  0  0  0  0  0  0
  135.8910  135.3520  154.7750 C   0  0  0  0  0  2  0  0  0  0  0  0
  135.3520  134.5020  153.6260 C   0  0  0  0  0  2  0  0  0  0  0  0
  135.4030  134.1270  151.1420 C   0  0  0  0  0  1  0  0  0  0  0  0
  135.7800  135.0680  152.2750 C   0  0  0  0  0  2  0  0  0  0  0  0
  144.7950  138.5650  152.6550 O   0  0  0  0  0  0  0  0  0  0  0  0
  145.2450  139.3160  151.5330 C   0  0  0  0  0  2  0  0  0  0  0  0
  144.7650  140.7470  151.7150 C   0  0  0  0  0  2  0  0  0  0  0  0
  145.9370  141.6620  152.0440 C   0  0  0  0  0  2  0  0  0  0  0  0
  146.5060  141.3490  153.4220 C   0  0  0  0  0  2  0  0  0  0  0  0
  145.6900  141.9930  154.4430 N   0  0  0  0  0  4  0  0  0  0  0  0
  146.0550  141.7620  155.3660 H   0  0  0  0  0  0  0  0  0  0  0  0
  144.7270  141.6650  154.3650 H   0  0  0  0  0  0  0  0  0  0  0  0
  145.7150  143.0040  154.3100 H   0  0  0  0  0  0  0  0  0  0  0  0
  1  9  1  0  0  0  0
  1  6  1  0  0  0  0
  2  1  2  0  0  0  0
  3  2  1  0  0  0  0
  3  4  2  0  0  0  0
  4  5  1  0  0  0  0
  5  6  2  0  0  0  0
  5  7  1  0  0  0  0
  7  8  1  0  0  0  0
  9 12  1  0  0  0  0
 10 14  1  0  0  0  0
 11 10  2  0  0  0  0
 12 13  1  0  0  0  0
 12 10  1  0  0  0  0
 15 14  1  0  0  0  0
 15 16  1  0  0  0  0
 17 16  1  0  0  0  0
 18 17  1  0  0  0  0
 19 18  1  0  0  0  0
 20 21  1  0  0  0  0
 21 19  1  0  0  0  0
 22  4  1  0  0  0  0
 23 24  1  0  0  0  0
 23 22  1  0  0  0  0
 24 25  1  0  0  0  0
 25 26  1  0  0  0  0
 26 27  1  0  0  0  0
 27 28  1  0  0  0  0
 29 27  1  0  0  0  0
 30 27  1  0  0  0  0
M  END
>  <MODEL>
8

>  <REMARK>
 VINA RESULT:    -6.080      2.009      9.395
 INTER + INTRA:         -12.869
 INTER:                 -11.589
 INTRA:                  -1.280
 UNBOUND:                -1.280
  Name = CHEMBL5282115
  18 active torsions:
  status: ('A' for Active; 'I' for Inactive)
    1  A    between atoms: C_1  and  C_2
    2  A    between atoms: C_2  and  C_3
    3  A    between atoms: C_3  and  C_4
    4  A    between atoms: C_4  and  C_5
    5  A    between atoms: C_5  and  C_6
    6  A    between atoms: C_6  and  C_7
    7  A    between atoms: C_7  and  C_8
    8  A    between atoms: C_8  and  C_9
    9  A    between atoms: N_11  and  C_12
   10  A    between atoms: C_12  and  C_13
   11  A    between atoms: C_16  and  O_17
   12  A    between atoms: O_17  and  C_18
   13  A    between atoms: C_18  and  C_19
   14  A    between atoms: C_19  and  C_20
   15  A    between atoms: C_20  and  C_21
   16  A    between atoms: C_21  and  N_22
   17  A    between atoms: C_23  and  O_24
   18  A    between atoms: O_24  and  C_25
                            x       y       z     vdW  Elec       q    Type
                         _______ _______ _______ _____ _____    ______ ____

>  <TORSDO>
F 16

>  <SCORE>
-6.080

>  <RMSD_LB>
2.009

>  <RMSD_UB>
9.395

$$$$
CHEMBL5282115
 OpenBabel10172500103D

 30 30  0  0  0  0  0  0  0  0999 V2000
  141.2940  138.5420  154.2020 C   0  0  0  0  0  0  0  0  0  0  0  0
  140.6520  138.1930  155.3920 C   0  0  0  0  0  3  0  0  0  0  0  0
  139.3040  137.8330  155.4010 C   0  0  0  0  0  3  0  0  0  0  0  0
  138.5470  137.8170  154.2200 C   0  0  0  0  0  0  0  0  0  0  0  0
  139.1650  138.1990  153.0190 C   0  0  0  0  0  0  0  0  0  0  0  0
  140.5350  138.5250  153.0170 C   0  0  0  0  0  3  0  0  0  0  0  0
  138.5820  138.2750  151.7770 O   0  0  0  0  0  0  0  0  0  0  0  0
  138.7500  137.1480  150.9170 C   0  0  0  0  0  1  0  0  0  0  0  0
  142.7540  138.9270  154.1750 C   0  0  0  0  0  2  0  0  0  0  0  0
  144.6140  139.1920  152.5770 C   0  0  0  0  0  0  0  0  0  0  0  0
  145.4860  139.0820  153.4210 O   0  0  0  0  0  0  0  0  0  0  0  0
  143.2540  139.1450  152.8360 N   0  0  0  0  0  0  0  0  0  0  0  0
  142.6150  139.2640  152.0950 H   0  0  0  0  0  0  0  0  0  0  0  0
  144.9260  139.4330  151.1090 C   0  0  0  0  0  2  0  0  0  0  0  0
  144.4710  140.8180  150.6560 C   0  0  0  0  0  2  0  0  0  0  0  0
  145.3120  141.9380  151.2690 C   0  0  0  0  0  2  0  0  0  0  0  0
  146.5710  142.1580  150.4360 C   0  0  0  0  0  2  0  0  0  0  0  0
  147.8060  142.3190  151.3160 C   0  0  0  0  0  2  0  0  0  0  0  0
  148.2580  140.9660  151.8610 C   0  0  0  0  0  2  0  0  0  0  0  0
  147.6560  141.8990  154.1160 C   0  0  0  0  0  1  0  0  0  0  0  0
  148.6600  141.0710  153.3300 C   0  0  0  0  0  2  0  0  0  0  0  0
  137.2380  137.4200  154.1810 O   0  0  0  0  0  0  0  0  0  0  0  0
  136.6500  136.9810  155.4010 C   0  0  0  0  0  2  0  0  0  0  0  0
  135.4840  136.0720  155.0490 C   0  0  0  0  0  2  0  0  0  0  0  0
  135.4920  135.7510  153.5600 C   0  0  0  0  0  2  0  0  0  0  0  0
  134.0800  135.4980  153.0470 C   0  0  0  0  0  2  0  0  0  0  0  0
  133.8620  134.0640  152.9110 N   0  0  0  0  0  4  0  0  0  0  0  0
  133.0910  133.7780  153.5150 H   0  0  0  0  0  0  0  0  0  0  0  0
  134.7090  133.5640  153.1800 H   0  0  0  0  0  0  0  0  0  0  0  0
  133.6330  133.8460  151.9410 H   0  0  0  0  0  0  0  0  0  0  0  0
  1  2  1  0  0  0  0
  2  3  2  0  0  0  0
  4  3  1  0  0  0  0
  5  4  2  0  0  0  0
  6  5  1  0  0  0  0
  6  1  2  0  0  0  0
  7  5  1  0  0  0  0
  8  7  1  0  0  0  0
  9  1  1  0  0  0  0
 10 12  1  0  0  0  0
 10 11  2  0  0  0  0
 12  9  1  0  0  0  0
 13 12  1  0  0  0  0
 14 10  1  0  0  0  0
 15 14  1  0  0  0  0
 15 16  1  0  0  0  0
 17 16  1  0  0  0  0
 17 18  1  0  0  0  0
 18 19  1  0  0  0  0
 19 21  1  0  0  0  0
 21 20  1  0  0  0  0
 22  4  1  0  0  0  0
 22 23  1  0  0  0  0
 24 23  1  0  0  0  0
 25 24  1  0  0  0  0
 26 25  1  0  0  0  0
 27 26  1  0  0  0  0
 27 29  1  0  0  0  0
 27 28  1  0  0  0  0
 30 27  1  0  0  0  0
M  END
>  <MODEL>
9

>  <REMARK>
 VINA RESULT:    -6.038      1.894      3.259
 INTER + INTRA:         -12.790
 INTER:                 -11.374
 INTRA:                  -1.416
 UNBOUND:                -1.280
  Name = CHEMBL5282115
  18 active torsions:
  status: ('A' for Active; 'I' for Inactive)
    1  A    between atoms: C_1  and  C_2
    2  A    between atoms: C_2  and  C_3
    3  A    between atoms: C_3  and  C_4
    4  A    between atoms: C_4  and  C_5
    5  A    between atoms: C_5  and  C_6
    6  A    between atoms: C_6  and  C_7
    7  A    between atoms: C_7  and  C_8
    8  A    between atoms: C_8  and  C_9
    9  A    between atoms: N_11  and  C_12
   10  A    between atoms: C_12  and  C_13
   11  A    between atoms: C_16  and  O_17
   12  A    between atoms: O_17  and  C_18
   13  A    between atoms: C_18  and  C_19
   14  A    between atoms: C_19  and  C_20
   15  A    between atoms: C_20  and  C_21
   16  A    between atoms: C_21  and  N_22
   17  A    between atoms: C_23  and  O_24
   18  A    between atoms: O_24  and  C_25
                            x       y       z     vdW  Elec       q    Type
                         _______ _______ _______ _____ _____    ______ ____

>  <TORSDO>
F 16

>  <SCORE>
-6.038

>  <RMSD_LB>
1.894

>  <RMSD_UB>
3.259

$$$$
