CHEMBL77299
 OpenBabel10162523443D

 24 25  0  0  0  0  0  0  0  0999 V2000
  147.1830  140.0280  154.9910 N   0  0  0  0  0  0  0  0  0  0  0  0
  148.4360  140.0680  154.4370 C   0  0  0  0  0  0  0  0  0  0  0  0
  149.1270  139.0880  154.1950 O   0  0  0  0  0  0  0  0  0  0  0  0
  146.7260  140.8640  155.2350 H   0  0  0  0  0  0  0  0  0  0  0  0
  148.9160  141.4510  154.1870 C   0  0  0  0  0  3  0  0  0  0  0  0
  148.5280  142.1920  153.1390 C   0  0  0  0  0  3  0  0  0  0  0  0
  147.5110  141.7750  152.1740 C   0  0  0  0  0  0  0  0  0  0  0  0
  146.2120  142.2880  152.2780 C   0  0  0  0  0  3  0  0  0  0  0  0
  145.2020  141.8120  151.4400 C   0  0  0  0  0  3  0  0  0  0  0  0
  145.4930  140.8290  150.4950 C   0  0  0  0  0  0  0  0  0  0  0  0
  144.2330  140.1980  149.5070 Cl  0  0  0  0  0  0  0  0  0  0  0  0
  146.7910  140.3400  150.3600 C   0  0  0  0  0  3  0  0  0  0  0  0
  147.8010  140.8150  151.1990 C   0  0  0  0  0  3  0  0  0  0  0  0
  146.5310  138.7550  155.2190 C   0  0  0  0  0  2  0  0  0  0  0  0
  145.6580  136.7140  152.1050 C   0  0  0  0  0  0  0  0  0  0  0  0
  146.3520  137.2240  153.2100 C   0  0  0  0  0  3  0  0  0  0  0  0
  145.8070  138.2590  153.9910 C   0  0  0  0  0  0  0  0  0  0  0  0
  144.5480  138.7770  153.6540 C   0  0  0  0  0  3  0  0  0  0  0  0
  143.8490  138.2800  152.5510 C   0  0  0  0  0  3  0  0  0  0  0  0
  144.4060  137.2570  151.7860 C   0  0  0  0  0  0  0  0  0  0  0  0
  147.2060  135.9710  150.4500 C   0  0  0  0  0  1  0  0  0  0  0  0
  146.1010  135.6970  151.2980 O   0  0  0  0  0  0  0  0  0  0  0  0
  143.7190  136.7660  150.7080 O   0  0  0  0  0  0  0  0  0  0  0  0
  143.7030  135.8440  150.5420 H   0  0  0  0  0  0  0  0  0  0  0  0
  1 14  1  0  0  0  0
  1  4  1  0  0  0  0
  2  1  1  0  0  0  0
  3  2  2  0  0  0  0
  5  2  1  0  0  0  0
  6  5  2  0  0  0  0
  7  8  1  0  0  0  0
  7  6  1  0  0  0  0
  9  8  2  0  0  0  0
 10  9  1  0  0  0  0
 11 10  1  0  0  0  0
 12 10  2  0  0  0  0
 12 13  1  0  0  0  0
 13  7  2  0  0  0  0
 15 16  1  0  0  0  0
 16 17  2  0  0  0  0
 17 14  1  0  0  0  0
 18 17  1  0  0  0  0
 19 18  2  0  0  0  0
 20 15  2  0  0  0  0
 20 19  1  0  0  0  0
 21 22  1  0  0  0  0
 22 15  1  0  0  0  0
 23 20  1  0  0  0  0
 24 23  1  0  0  0  0
M  END
>  <MODEL>
1

>  <REMARK>
 VINA RESULT:    -6.989      0.000      0.000
 INTER + INTRA:         -10.950
 INTER:                  -9.263
 INTRA:                  -1.687
 UNBOUND:                -1.714
  Name = CHEMBL77299
  7 active torsions:
  status: ('A' for Active; 'I' for Inactive)
    1  A    between atoms: C_1  and  O_2
    2  A    between atoms: O_2  and  C_3
    3  A    between atoms: C_5  and  C_6
    4  A    between atoms: C_6  and  N_7
    5  A    between atoms: C_8  and  C_10
    6  A    between atoms: C_11  and  C_12
    7  A    between atoms: C_21  and  O_22
                            x       y       z     vdW  Elec       q    Type
                         _______ _______ _______ _____ _____    ______ ____

>  <TORSDO>
F 6

>  <SCORE>
-6.989

>  <RMSD_LB>
0.000

>  <RMSD_UB>
0.000

$$$$
CHEMBL77299
 OpenBabel10162523443D

 24 25  0  0  0  0  0  0  0  0999 V2000
  147.1910  140.0060  155.0410 N   0  0  0  0  0  0  0  0  0  0  0  0
  148.4000  140.0680  154.3980 C   0  0  0  0  0  0  0  0  0  0  0  0
  149.0680  139.0980  154.0670 O   0  0  0  0  0  0  0  0  0  0  0  0
  146.7560  140.8320  155.3510 H   0  0  0  0  0  0  0  0  0  0  0  0
  148.8660  141.4590  154.1700 C   0  0  0  0  0  3  0  0  0  0  0  0
  148.4730  142.2110  153.1310 C   0  0  0  0  0  3  0  0  0  0  0  0
  147.4620  141.7960  152.1580 C   0  0  0  0  0  0  0  0  0  0  0  0
  146.1660  142.3190  152.2460 C   0  0  0  0  0  3  0  0  0  0  0  0
  145.1610  141.8450  151.3990 C   0  0  0  0  0  3  0  0  0  0  0  0
  145.4550  140.8570  150.4610 C   0  0  0  0  0  0  0  0  0  0  0  0
  144.2010  140.2300  149.4640 Cl  0  0  0  0  0  0  0  0  0  0  0  0
  146.7510  140.3580  150.3420 C   0  0  0  0  0  3  0  0  0  0  0  0
  147.7560  140.8310  151.1900 C   0  0  0  0  0  3  0  0  0  0  0  0
  146.5520  138.7260  155.2650 C   0  0  0  0  0  2  0  0  0  0  0  0
  143.6420  138.5880  152.7880 C   0  0  0  0  0  0  0  0  0  0  0  0
  144.4290  138.9180  153.8990 C   0  0  0  0  0  3  0  0  0  0  0  0
  145.6820  138.3130  154.1030 C   0  0  0  0  0  0  0  0  0  0  0  0
  146.1430  137.3710  153.1730 C   0  0  0  0  0  3  0  0  0  0  0  0
  145.3640  137.0280  152.0650 C   0  0  0  0  0  3  0  0  0  0  0  0
  144.1240  137.6350  151.8810 C   0  0  0  0  0  0  0  0  0  0  0  0
  141.3050  138.6870  153.2560 C   0  0  0  0  0  1  0  0  0  0  0  0
  142.4190  139.1370  152.4990 O   0  0  0  0  0  0  0  0  0  0  0  0
  143.3620  137.3040  150.7910 O   0  0  0  0  0  0  0  0  0  0  0  0
  143.3610  137.8560  150.0350 H   0  0  0  0  0  0  0  0  0  0  0  0
  1 14  1  0  0  0  0
  1  4  1  0  0  0  0
  2  1  1  0  0  0  0
  3  2  2  0  0  0  0
  5  2  1  0  0  0  0
  6  5  2  0  0  0  0
  7  8  1  0  0  0  0
  7  6  1  0  0  0  0
  9  8  2  0  0  0  0
 10  9  1  0  0  0  0
 11 10  1  0  0  0  0
 12 10  2  0  0  0  0
 12 13  1  0  0  0  0
 13  7  2  0  0  0  0
 15 16  1  0  0  0  0
 16 17  2  0  0  0  0
 17 14  1  0  0  0  0
 18 17  1  0  0  0  0
 19 18  2  0  0  0  0
 20 19  1  0  0  0  0
 20 15  2  0  0  0  0
 22 15  1  0  0  0  0
 22 21  1  0  0  0  0
 23 20  1  0  0  0  0
 24 23  1  0  0  0  0
M  END
>  <MODEL>
2

>  <REMARK>
 VINA RESULT:    -6.938      0.928      2.149
 INTER + INTRA:         -10.883
 INTER:                  -9.199
 INTRA:                  -1.684
 UNBOUND:                -1.714
  Name = CHEMBL77299
  7 active torsions:
  status: ('A' for Active; 'I' for Inactive)
    1  A    between atoms: C_1  and  O_2
    2  A    between atoms: O_2  and  C_3
    3  A    between atoms: C_5  and  C_6
    4  A    between atoms: C_6  and  N_7
    5  A    between atoms: C_8  and  C_10
    6  A    between atoms: C_11  and  C_12
    7  A    between atoms: C_21  and  O_22
                            x       y       z     vdW  Elec       q    Type
                         _______ _______ _______ _____ _____    ______ ____

>  <TORSDO>
F 6

>  <SCORE>
-6.938

>  <RMSD_LB>
0.928

>  <RMSD_UB>
2.149

$$$$
CHEMBL77299
 OpenBabel10162523443D

 24 25  0  0  0  0  0  0  0  0999 V2000
  146.1150  137.7180  154.5020 N   0  0  0  0  0  0  0  0  0  0  0  0
  147.3570  138.0990  154.0670 C   0  0  0  0  0  0  0  0  0  0  0  0
  147.8640  137.7570  153.0080 O   0  0  0  0  0  0  0  0  0  0  0  0
  145.8130  137.9650  155.4050 H   0  0  0  0  0  0  0  0  0  0  0  0
  148.0780  138.9550  155.0440 C   0  0  0  0  0  3  0  0  0  0  0  0
  148.3480  140.2520  154.8340 C   0  0  0  0  0  3  0  0  0  0  0  0
  147.8790  141.0080  153.6730 C   0  0  0  0  0  0  0  0  0  0  0  0
  146.5970  141.5730  153.6900 C   0  0  0  0  0  3  0  0  0  0  0  0
  146.0910  142.1950  152.5470 C   0  0  0  0  0  3  0  0  0  0  0  0
  146.8690  142.2590  151.3920 C   0  0  0  0  0  0  0  0  0  0  0  0
  146.2180  142.9690  149.9660 Cl  0  0  0  0  0  0  0  0  0  0  0  0
  148.1590  141.7320  151.3780 C   0  0  0  0  0  3  0  0  0  0  0  0
  148.6660  141.1090  152.5210 C   0  0  0  0  0  3  0  0  0  0  0  0
  145.2450  136.9520  153.6330 C   0  0  0  0  0  2  0  0  0  0  0  0
  143.4950  139.5180  151.4030 C   0  0  0  0  0  0  0  0  0  0  0  0
  144.4940  138.7650  152.0330 C   0  0  0  0  0  3  0  0  0  0  0  0
  144.1680  137.8060  153.0090 C   0  0  0  0  0  0  0  0  0  0  0  0
  142.8220  137.6050  153.3450 C   0  0  0  0  0  3  0  0  0  0  0  0
  141.8170  138.3540  152.7280 C   0  0  0  0  0  3  0  0  0  0  0  0
  142.1590  139.3030  151.7660 C   0  0  0  0  0  0  0  0  0  0  0  0
  144.3570  140.0310  149.2390 C   0  0  0  0  0  1  0  0  0  0  0  0
  143.7150  140.4600  150.4310 O   0  0  0  0  0  0  0  0  0  0  0  0
  141.1740  140.0330  151.1560 O   0  0  0  0  0  0  0  0  0  0  0  0
  140.5280  140.4730  151.6720 H   0  0  0  0  0  0  0  0  0  0  0  0
  1  4  1  0  0  0  0
  2  1  1  0  0  0  0
  2  5  1  0  0  0  0
  3  2  2  0  0  0  0
  6  5  2  0  0  0  0
  7  8  1  0  0  0  0
  7  6  1  0  0  0  0
  9  8  2  0  0  0  0
 10  9  1  0  0  0  0
 11 10  1  0  0  0  0
 12 10  2  0  0  0  0
 12 13  1  0  0  0  0
 13  7  2  0  0  0  0
 14  1  1  0  0  0  0
 15 20  2  0  0  0  0
 15 16  1  0  0  0  0
 16 17  2  0  0  0  0
 17 18  1  0  0  0  0
 17 14  1  0  0  0  0
 19 18  2  0  0  0  0
 20 19  1  0  0  0  0
 21 22  1  0  0  0  0
 22 15  1  0  0  0  0
 23 24  1  0  0  0  0
 23 20  1  0  0  0  0
M  END
>  <MODEL>
3

>  <REMARK>
 VINA RESULT:    -6.770      2.030      2.898
 INTER + INTRA:         -10.661
 INTER:                  -9.414
 INTRA:                  -1.247
 UNBOUND:                -1.714
  Name = CHEMBL77299
  7 active torsions:
  status: ('A' for Active; 'I' for Inactive)
    1  A    between atoms: C_1  and  O_2
    2  A    between atoms: O_2  and  C_3
    3  A    between atoms: C_5  and  C_6
    4  A    between atoms: C_6  and  N_7
    5  A    between atoms: C_8  and  C_10
    6  A    between atoms: C_11  and  C_12
    7  A    between atoms: C_21  and  O_22
                            x       y       z     vdW  Elec       q    Type
                         _______ _______ _______ _____ _____    ______ ____

>  <TORSDO>
F 6

>  <SCORE>
-6.770

>  <RMSD_LB>
2.030

>  <RMSD_UB>
2.898

$$$$
CHEMBL77299
 OpenBabel10162523443D

 24 25  0  0  0  0  0  0  0  0999 V2000
  144.6010  141.1840  149.8550 N   0  0  0  0  0  0  0  0  0  0  0  0
  145.8540  141.0090  149.3300 C   0  0  0  0  0  0  0  0  0  0  0  0
  146.2970  139.9480  148.9110 O   0  0  0  0  0  0  0  0  0  0  0  0
  144.3500  142.0490  150.2500 H   0  0  0  0  0  0  0  0  0  0  0  0
  146.6730  142.2470  149.3540 C   0  0  0  0  0  3  0  0  0  0  0  0
  147.3580  142.6620  150.4300 C   0  0  0  0  0  3  0  0  0  0  0  0
  147.4690  141.8990  151.6730 C   0  0  0  0  0  0  0  0  0  0  0  0
  148.2090  140.7100  151.6880 C   0  0  0  0  0  3  0  0  0  0  0  0
  148.2270  139.9110  152.8330 C   0  0  0  0  0  3  0  0  0  0  0  0
  147.5120  140.3040  153.9630 C   0  0  0  0  0  0  0  0  0  0  0  0
  147.4840  139.2860  155.3500 Cl  0  0  0  0  0  0  0  0  0  0  0  0
  146.8030  141.5040  153.9690 C   0  0  0  0  0  3  0  0  0  0  0  0
  146.7840  142.3040  152.8240 C   0  0  0  0  0  3  0  0  0  0  0  0
  143.6440  140.0960  149.8280 C   0  0  0  0  0  2  0  0  0  0  0  0
  141.6780  138.5400  152.7140 C   0  0  0  0  0  0  0  0  0  0  0  0
  142.0190  139.0200  151.4430 C   0  0  0  0  0  3  0  0  0  0  0  0
  143.2580  139.6440  151.2160 C   0  0  0  0  0  0  0  0  0  0  0  0
  144.1590  139.7790  152.2810 C   0  0  0  0  0  3  0  0  0  0  0  0
  143.8280  139.3100  153.5540 C   0  0  0  0  0  3  0  0  0  0  0  0
  142.5940  138.6970  153.7630 C   0  0  0  0  0  0  0  0  0  0  0  0
  139.2930  138.5930  152.7510 C   0  0  0  0  0  1  0  0  0  0  0  0
  140.5040  137.9030  153.0260 O   0  0  0  0  0  0  0  0  0  0  0  0
  142.2710  138.2320  155.0100 O   0  0  0  0  0  0  0  0  0  0  0  0
  142.8890  138.3010  155.7110 H   0  0  0  0  0  0  0  0  0  0  0  0
  1  4  1  0  0  0  0
  2  5  1  0  0  0  0
  2  1  1  0  0  0  0
  3  2  2  0  0  0  0
  5  6  2  0  0  0  0
  6  7  1  0  0  0  0
  7  8  2  0  0  0  0
  7 13  1  0  0  0  0
  8  9  1  0  0  0  0
  9 10  2  0  0  0  0
 10 12  1  0  0  0  0
 10 11  1  0  0  0  0
 13 12  2  0  0  0  0
 14  1  1  0  0  0  0
 14 17  1  0  0  0  0
 15 22  1  0  0  0  0
 15 20  1  0  0  0  0
 16 15  2  0  0  0  0
 17 16  1  0  0  0  0
 17 18  2  0  0  0  0
 18 19  1  0  0  0  0
 19 20  2  0  0  0  0
 20 23  1  0  0  0  0
 21 22  1  0  0  0  0
 23 24  1  0  0  0  0
M  END
>  <MODEL>
4

>  <REMARK>
 VINA RESULT:    -6.654      3.298      4.756
 INTER + INTRA:         -10.507
 INTER:                  -9.239
 INTRA:                  -1.268
 UNBOUND:                -1.714
  Name = CHEMBL77299
  7 active torsions:
  status: ('A' for Active; 'I' for Inactive)
    1  A    between atoms: C_1  and  O_2
    2  A    between atoms: O_2  and  C_3
    3  A    between atoms: C_5  and  C_6
    4  A    between atoms: C_6  and  N_7
    5  A    between atoms: C_8  and  C_10
    6  A    between atoms: C_11  and  C_12
    7  A    between atoms: C_21  and  O_22
                            x       y       z     vdW  Elec       q    Type
                         _______ _______ _______ _____ _____    ______ ____

>  <TORSDO>
F 6

>  <SCORE>
-6.654

>  <RMSD_LB>
3.298

>  <RMSD_UB>
4.756

$$$$
CHEMBL77299
 OpenBabel10162523443D

 24 25  0  0  0  0  0  0  0  0999 V2000
  145.6150  137.8560  154.5830 N   0  0  0  0  0  0  0  0  0  0  0  0
  146.9620  137.8740  154.3290 C   0  0  0  0  0  0  0  0  0  0  0  0
  147.5290  137.1680  153.5060 O   0  0  0  0  0  0  0  0  0  0  0  0
  145.2470  138.3910  155.3210 H   0  0  0  0  0  0  0  0  0  0  0  0
  147.7040  138.8220  155.1980 C   0  0  0  0  0  3  0  0  0  0  0  0
  147.9970  140.0810  154.8400 C   0  0  0  0  0  3  0  0  0  0  0  0
  147.5340  140.7080  153.6020 C   0  0  0  0  0  0  0  0  0  0  0  0
  148.2440  140.4940  152.4140 C   0  0  0  0  0  3  0  0  0  0  0  0
  147.8840  141.1780  151.2510 C   0  0  0  0  0  3  0  0  0  0  0  0
  146.8110  142.0670  151.2740 C   0  0  0  0  0  0  0  0  0  0  0  0
  146.4100  142.9550  149.8560 Cl  0  0  0  0  0  0  0  0  0  0  0  0
  146.0750  142.2570  152.4430 C   0  0  0  0  0  3  0  0  0  0  0  0
  146.4360  141.5740  153.6070 C   0  0  0  0  0  3  0  0  0  0  0  0
  144.7330  137.0490  153.7660 C   0  0  0  0  0  2  0  0  0  0  0  0
  141.5680  138.5500  152.2330 C   0  0  0  0  0  0  0  0  0  0  0  0
  142.4250  137.7290  152.9770 C   0  0  0  0  0  3  0  0  0  0  0  0
  143.8210  137.8920  152.9090 C   0  0  0  0  0  0  0  0  0  0  0  0
  144.3510  138.8950  152.0860 C   0  0  0  0  0  3  0  0  0  0  0  0
  143.5060  139.7160  151.3340 C   0  0  0  0  0  3  0  0  0  0  0  0
  142.1260  139.5380  151.4110 C   0  0  0  0  0  0  0  0  0  0  0  0
  139.5720  138.2220  153.4980 C   0  0  0  0  0  1  0  0  0  0  0  0
  140.1990  138.4770  152.2490 O   0  0  0  0  0  0  0  0  0  0  0  0
  141.2970  140.3460  150.6790 O   0  0  0  0  0  0  0  0  0  0  0  0
  140.8720  141.0750  151.0870 H   0  0  0  0  0  0  0  0  0  0  0  0
  1  4  1  0  0  0  0
  2  1  1  0  0  0  0
  2  5  1  0  0  0  0
  3  2  2  0  0  0  0
  6  5  2  0  0  0  0
  7 13  1  0  0  0  0
  7  6  1  0  0  0  0
  8  7  2  0  0  0  0
  9 10  2  0  0  0  0
  9  8  1  0  0  0  0
 10 12  1  0  0  0  0
 11 10  1  0  0  0  0
 12 13  2  0  0  0  0
 14  1  1  0  0  0  0
 15 22  1  0  0  0  0
 15 16  1  0  0  0  0
 17 16  2  0  0  0  0
 17 14  1  0  0  0  0
 18 17  1  0  0  0  0
 19 20  1  0  0  0  0
 19 18  2  0  0  0  0
 20 15  2  0  0  0  0
 22 21  1  0  0  0  0
 23 24  1  0  0  0  0
 23 20  1  0  0  0  0
M  END
>  <MODEL>
5

>  <REMARK>
 VINA RESULT:    -6.651      2.278      3.632
 INTER + INTRA:         -10.505
 INTER:                  -9.123
 INTRA:                  -1.382
 UNBOUND:                -1.714
  Name = CHEMBL77299
  7 active torsions:
  status: ('A' for Active; 'I' for Inactive)
    1  A    between atoms: C_1  and  O_2
    2  A    between atoms: O_2  and  C_3
    3  A    between atoms: C_5  and  C_6
    4  A    between atoms: C_6  and  N_7
    5  A    between atoms: C_8  and  C_10
    6  A    between atoms: C_11  and  C_12
    7  A    between atoms: C_21  and  O_22
                            x       y       z     vdW  Elec       q    Type
                         _______ _______ _______ _____ _____    ______ ____

>  <TORSDO>
F 6

>  <SCORE>
-6.651

>  <RMSD_LB>
2.278

>  <RMSD_UB>
3.632

$$$$
CHEMBL77299
 OpenBabel10162523443D

 24 25  0  0  0  0  0  0  0  0999 V2000
  144.5430  137.9850  154.1410 N   0  0  0  0  0  0  0  0  0  0  0  0
  145.8910  137.8900  153.9120 C   0  0  0  0  0  0  0  0  0  0  0  0
  146.3990  137.3500  152.9390 O   0  0  0  0  0  0  0  0  0  0  0  0
  144.2140  138.3590  154.9890 H   0  0  0  0  0  0  0  0  0  0  0  0
  146.7090  138.4790  155.0010 C   0  0  0  0  0  3  0  0  0  0  0  0
  147.3700  139.6410  154.8870 C   0  0  0  0  0  3  0  0  0  0  0  0
  147.2830  140.5190  153.7200 C   0  0  0  0  0  0  0  0  0  0  0  0
  146.2560  141.4690  153.6470 C   0  0  0  0  0  3  0  0  0  0  0  0
  146.0890  142.2320  152.4900 C   0  0  0  0  0  3  0  0  0  0  0  0
  146.9530  142.0520  151.4110 C   0  0  0  0  0  0  0  0  0  0  0  0
  146.7060  142.9480  149.9630 Cl  0  0  0  0  0  0  0  0  0  0  0  0
  148.0000  141.1350  151.4890 C   0  0  0  0  0  3  0  0  0  0  0  0
  148.1670  140.3700  152.6460 C   0  0  0  0  0  3  0  0  0  0  0  0
  143.6020  137.5360  153.1360 C   0  0  0  0  0  2  0  0  0  0  0  0
  139.8540  138.1870  152.7520 C   0  0  0  0  0  0  0  0  0  0  0  0
  141.1660  137.7740  152.4870 C   0  0  0  0  0  3  0  0  0  0  0  0
  142.2050  138.0450  153.3960 C   0  0  0  0  0  0  0  0  0  0  0  0
  141.9120  138.7330  154.5820 C   0  0  0  0  0  3  0  0  0  0  0  0
  140.6080  139.1550  154.8530 C   0  0  0  0  0  3  0  0  0  0  0  0
  139.5920  138.8820  153.9400 C   0  0  0  0  0  0  0  0  0  0  0  0
  138.8200  138.4990  150.6240 C   0  0  0  0  0  1  0  0  0  0  0  0
  138.7770  137.9540  151.9350 O   0  0  0  0  0  0  0  0  0  0  0  0
  138.3120  139.2910  154.2080 O   0  0  0  0  0  0  0  0  0  0  0  0
  137.5870  138.7500  153.9660 H   0  0  0  0  0  0  0  0  0  0  0  0
  1  4  1  0  0  0  0
  2  1  1  0  0  0  0
  2  5  1  0  0  0  0
  3  2  2  0  0  0  0
  6  5  2  0  0  0  0
  7  6  1  0  0  0  0
  8  7  1  0  0  0  0
  9  8  2  0  0  0  0
 10 12  2  0  0  0  0
 10  9  1  0  0  0  0
 11 10  1  0  0  0  0
 12 13  1  0  0  0  0
 13  7  2  0  0  0  0
 14 17  1  0  0  0  0
 14  1  1  0  0  0  0
 15 20  1  0  0  0  0
 16 15  2  0  0  0  0
 16 17  1  0  0  0  0
 17 18  2  0  0  0  0
 18 19  1  0  0  0  0
 20 23  1  0  0  0  0
 20 19  2  0  0  0  0
 21 22  1  0  0  0  0
 22 15  1  0  0  0  0
 24 23  1  0  0  0  0
M  END
>  <MODEL>
6

>  <REMARK>
 VINA RESULT:    -6.497      3.150      4.389
 INTER + INTRA:         -10.300
 INTER:                  -9.661
 INTRA:                  -0.639
 UNBOUND:                -1.714
  Name = CHEMBL77299
  7 active torsions:
  status: ('A' for Active; 'I' for Inactive)
    1  A    between atoms: C_1  and  O_2
    2  A    between atoms: O_2  and  C_3
    3  A    between atoms: C_5  and  C_6
    4  A    between atoms: C_6  and  N_7
    5  A    between atoms: C_8  and  C_10
    6  A    between atoms: C_11  and  C_12
    7  A    between atoms: C_21  and  O_22
                            x       y       z     vdW  Elec       q    Type
                         _______ _______ _______ _____ _____    ______ ____

>  <TORSDO>
F 6

>  <SCORE>
-6.497

>  <RMSD_LB>
3.150

>  <RMSD_UB>
4.389

$$$$
CHEMBL77299
 OpenBabel10162523443D

 24 25  0  0  0  0  0  0  0  0999 V2000
  144.1300  138.0890  153.8270 N   0  0  0  0  0  0  0  0  0  0  0  0
  145.4710  137.8070  153.8200 C   0  0  0  0  0  0  0  0  0  0  0  0
  146.0240  137.0520  153.0310 O   0  0  0  0  0  0  0  0  0  0  0  0
  143.7480  138.6390  154.5470 H   0  0  0  0  0  0  0  0  0  0  0  0
  146.2140  138.4840  154.9130 C   0  0  0  0  0  3  0  0  0  0  0  0
  146.8850  139.6350  154.7510 C   0  0  0  0  0  3  0  0  0  0  0  0
  146.8830  140.4150  153.5140 C   0  0  0  0  0  0  0  0  0  0  0  0
  147.9000  140.2180  152.5730 C   0  0  0  0  0  3  0  0  0  0  0  0
  147.9780  141.0360  151.4440 C   0  0  0  0  0  3  0  0  0  0  0  0
  147.0350  142.0450  151.2530 C   0  0  0  0  0  0  0  0  0  0  0  0
  147.1710  143.0920  149.8950 Cl  0  0  0  0  0  0  0  0  0  0  0  0
  145.9970  142.2240  152.1660 C   0  0  0  0  0  3  0  0  0  0  0  0
  145.9200  141.4070  153.2960 C   0  0  0  0  0  3  0  0  0  0  0  0
  143.2750  137.5780  152.7760 C   0  0  0  0  0  2  0  0  0  0  0  0
  140.0480  138.2400  154.7170 C   0  0  0  0  0  0  0  0  0  0  0  0
  141.3990  138.0190  154.4170 C   0  0  0  0  0  3  0  0  0  0  0  0
  141.8110  137.7460  153.1000 C   0  0  0  0  0  0  0  0  0  0  0  0
  140.8500  137.7020  152.0810 C   0  0  0  0  0  3  0  0  0  0  0  0
  139.5000  137.9140  152.3680 C   0  0  0  0  0  3  0  0  0  0  0  0
  139.1090  138.1800  153.6790 C   0  0  0  0  0  0  0  0  0  0  0  0
  139.3200  137.4380  156.8430 C   0  0  0  0  0  1  0  0  0  0  0  0
  139.5570  138.5290  155.9640 O   0  0  0  0  0  0  0  0  0  0  0  0
  137.7860  138.3940  153.9610 O   0  0  0  0  0  0  0  0  0  0  0  0
  137.2350  138.8180  153.3330 H   0  0  0  0  0  0  0  0  0  0  0  0
  1  4  1  0  0  0  0
  2  1  1  0  0  0  0
  2  5  1  0  0  0  0
  3  2  2  0  0  0  0
  6  5  2  0  0  0  0
  7  6  1  0  0  0  0
  8  7  2  0  0  0  0
  9  8  1  0  0  0  0
 10  9  2  0  0  0  0
 10 12  1  0  0  0  0
 11 10  1  0  0  0  0
 12 13  2  0  0  0  0
 13  7  1  0  0  0  0
 14 17  1  0  0  0  0
 14  1  1  0  0  0  0
 15 22  1  0  0  0  0
 16 15  1  0  0  0  0
 17 16  2  0  0  0  0
 18 19  2  0  0  0  0
 18 17  1  0  0  0  0
 19 20  1  0  0  0  0
 20 23  1  0  0  0  0
 20 15  2  0  0  0  0
 22 21  1  0  0  0  0
 24 23  1  0  0  0  0
M  END
>  <MODEL>
7

>  <REMARK>
 VINA RESULT:    -6.481      3.500      4.892
 INTER + INTRA:         -10.279
 INTER:                  -9.626
 INTRA:                  -0.654
 UNBOUND:                -1.714
  Name = CHEMBL77299
  7 active torsions:
  status: ('A' for Active; 'I' for Inactive)
    1  A    between atoms: C_1  and  O_2
    2  A    between atoms: O_2  and  C_3
    3  A    between atoms: C_5  and  C_6
    4  A    between atoms: C_6  and  N_7
    5  A    between atoms: C_8  and  C_10
    6  A    between atoms: C_11  and  C_12
    7  A    between atoms: C_21  and  O_22
                            x       y       z     vdW  Elec       q    Type
                         _______ _______ _______ _____ _____    ______ ____

>  <TORSDO>
F 6

>  <SCORE>
-6.481

>  <RMSD_LB>
3.500

>  <RMSD_UB>
4.892

$$$$
CHEMBL77299
 OpenBabel10162523443D

 24 25  0  0  0  0  0  0  0  0999 V2000
  145.0920  138.3270  154.5580 N   0  0  0  0  0  0  0  0  0  0  0  0
  146.3290  137.7390  154.5340 C   0  0  0  0  0  0  0  0  0  0  0  0
  146.5920  136.6820  153.9760 O   0  0  0  0  0  0  0  0  0  0  0  0
  144.9410  139.1330  155.1010 H   0  0  0  0  0  0  0  0  0  0  0  0
  147.3470  138.4950  155.3060 C   0  0  0  0  0  3  0  0  0  0  0  0
  147.8580  139.6690  154.9070 C   0  0  0  0  0  3  0  0  0  0  0  0
  147.4040  140.3980  153.7230 C   0  0  0  0  0  0  0  0  0  0  0  0
  147.8600  140.0090  152.4570 C   0  0  0  0  0  3  0  0  0  0  0  0
  147.5310  140.7660  151.3310 C   0  0  0  0  0  3  0  0  0  0  0  0
  146.7400  141.9050  151.4690 C   0  0  0  0  0  0  0  0  0  0  0  0
  146.3880  142.8710  150.0900 Cl  0  0  0  0  0  0  0  0  0  0  0  0
  146.2500  142.2780  152.7200 C   0  0  0  0  0  3  0  0  0  0  0  0
  146.5810  141.5220  153.8480 C   0  0  0  0  0  3  0  0  0  0  0  0
  144.0060  137.7640  153.7830 C   0  0  0  0  0  2  0  0  0  0  0  0
  144.0110  137.9560  149.9640 C   0  0  0  0  0  0  0  0  0  0  0  0
  144.1140  137.4630  151.2710 C   0  0  0  0  0  3  0  0  0  0  0  0
  143.9610  138.3160  152.3790 C   0  0  0  0  0  0  0  0  0  0  0  0
  143.6970  139.6750  152.1610 C   0  0  0  0  0  3  0  0  0  0  0  0
  143.5990  140.1800  150.8620 C   0  0  0  0  0  3  0  0  0  0  0  0
  143.7570  139.3210  149.7770 C   0  0  0  0  0  0  0  0  0  0  0  0
  144.7950  135.9500  148.9380 C   0  0  0  0  0  1  0  0  0  0  0  0
  144.1280  137.1980  148.8270 O   0  0  0  0  0  0  0  0  0  0  0  0
  143.6540  139.8130  148.5030 O   0  0  0  0  0  0  0  0  0  0  0  0
  144.4100  140.1630  148.0720 H   0  0  0  0  0  0  0  0  0  0  0  0
  1  4  1  0  0  0  0
  2  1  1  0  0  0  0
  2  5  1  0  0  0  0
  3  2  2  0  0  0  0
  6  5  2  0  0  0  0
  7 13  1  0  0  0  0
  7  6  1  0  0  0  0
  8  7  2  0  0  0  0
  9 10  2  0  0  0  0
  9  8  1  0  0  0  0
 10 12  1  0  0  0  0
 11 10  1  0  0  0  0
 12 13  2  0  0  0  0
 14  1  1  0  0  0  0
 15 16  1  0  0  0  0
 16 17  2  0  0  0  0
 17 14  1  0  0  0  0
 18 17  1  0  0  0  0
 19 18  2  0  0  0  0
 20 15  2  0  0  0  0
 20 19  1  0  0  0  0
 22 21  1  0  0  0  0
 22 15  1  0  0  0  0
 23 20  1  0  0  0  0
 24 23  1  0  0  0  0
M  END
>  <MODEL>
8

>  <REMARK>
 VINA RESULT:    -6.429      1.939      2.952
 INTER + INTRA:         -10.210
 INTER:                  -8.678
 INTRA:                  -1.532
 UNBOUND:                -1.714
  Name = CHEMBL77299
  7 active torsions:
  status: ('A' for Active; 'I' for Inactive)
    1  A    between atoms: C_1  and  O_2
    2  A    between atoms: O_2  and  C_3
    3  A    between atoms: C_5  and  C_6
    4  A    between atoms: C_6  and  N_7
    5  A    between atoms: C_8  and  C_10
    6  A    between atoms: C_11  and  C_12
    7  A    between atoms: C_21  and  O_22
                            x       y       z     vdW  Elec       q    Type
                         _______ _______ _______ _____ _____    ______ ____

>  <TORSDO>
F 6

>  <SCORE>
-6.429

>  <RMSD_LB>
1.939

>  <RMSD_UB>
2.952

$$$$
CHEMBL77299
 OpenBabel10162523443D

 24 25  0  0  0  0  0  0  0  0999 V2000
  138.0050  136.1060  149.6640 N   0  0  0  0  0  0  0  0  0  0  0  0
  137.6160  137.2440  150.3200 C   0  0  0  0  0  0  0  0  0  0  0  0
  137.3420  138.3060  149.7790 O   0  0  0  0  0  0  0  0  0  0  0  0
  138.2920  135.3160  150.1760 H   0  0  0  0  0  0  0  0  0  0  0  0
  137.5960  137.0850  151.7960 C   0  0  0  0  0  3  0  0  0  0  0  0
  136.6380  136.4160  152.4570 C   0  0  0  0  0  3  0  0  0  0  0  0
  135.5590  135.6760  151.8040 C   0  0  0  0  0  0  0  0  0  0  0  0
  135.7670  134.3430  151.4280 C   0  0  0  0  0  3  0  0  0  0  0  0
  134.7910  133.6600  150.6990 C   0  0  0  0  0  3  0  0  0  0  0  0
  133.6050  134.3070  150.3550 C   0  0  0  0  0  0  0  0  0  0  0  0
  132.4320  133.4850  149.4030 Cl  0  0  0  0  0  0  0  0  0  0  0  0
  133.3740  135.6220  150.7580 C   0  0  0  0  0  3  0  0  0  0  0  0
  134.3520  136.3060  151.4850 C   0  0  0  0  0  3  0  0  0  0  0  0
  137.9960  136.0640  148.2160 C   0  0  0  0  0  2  0  0  0  0  0  0
  134.5390  135.3490  146.7470 C   0  0  0  0  0  0  0  0  0  0  0  0
  135.6320  136.0200  147.3080 C   0  0  0  0  0  3  0  0  0  0  0  0
  136.7970  135.3230  147.6760 C   0  0  0  0  0  0  0  0  0  0  0  0
  136.8560  133.9370  147.4690 C   0  0  0  0  0  3  0  0  0  0  0  0
  135.7690  133.2560  146.9160 C   0  0  0  0  0  3  0  0  0  0  0  0
  134.6220  133.9630  146.5610 C   0  0  0  0  0  0  0  0  0  0  0  0
  132.6620  136.7110  147.3060 C   0  0  0  0  0  1  0  0  0  0  0  0
  133.3720  135.9460  146.3430 O   0  0  0  0  0  0  0  0  0  0  0  0
  133.5580  133.2960  146.0130 O   0  0  0  0  0  0  0  0  0  0  0  0
  133.1050  132.6450  146.5120 H   0  0  0  0  0  0  0  0  0  0  0  0
  1  4  1  0  0  0  0
  1  2  1  0  0  0  0
  2  5  1  0  0  0  0
  3  2  2  0  0  0  0
  5  6  2  0  0  0  0
  7  6  1  0  0  0  0
  8  7  2  0  0  0  0
  9  8  1  0  0  0  0
 10  9  2  0  0  0  0
 10 12  1  0  0  0  0
 11 10  1  0  0  0  0
 12 13  2  0  0  0  0
 13  7  1  0  0  0  0
 14  1  1  0  0  0  0
 15 16  1  0  0  0  0
 16 17  2  0  0  0  0
 17 14  1  0  0  0  0
 18 17  1  0  0  0  0
 19 18  2  0  0  0  0
 20 15  2  0  0  0  0
 20 19  1  0  0  0  0
 22 15  1  0  0  0  0
 22 21  1  0  0  0  0
 23 24  1  0  0  0  0
 23 20  1  0  0  0  0
M  END
>  <MODEL>
9

>  <REMARK>
 VINA RESULT:    -6.237     10.037     12.693
 INTER + INTRA:          -9.957
 INTER:                  -8.242
 INTRA:                  -1.714
 UNBOUND:                -1.714
  Name = CHEMBL77299
  7 active torsions:
  status: ('A' for Active; 'I' for Inactive)
    1  A    between atoms: C_1  and  O_2
    2  A    between atoms: O_2  and  C_3
    3  A    between atoms: C_5  and  C_6
    4  A    between atoms: C_6  and  N_7
    5  A    between atoms: C_8  and  C_10
    6  A    between atoms: C_11  and  C_12
    7  A    between atoms: C_21  and  O_22
                            x       y       z     vdW  Elec       q    Type
                         _______ _______ _______ _____ _____    ______ ____

>  <TORSDO>
F 6

>  <SCORE>
-6.237

>  <RMSD_LB>
10.037

>  <RMSD_UB>
12.693

$$$$
