CHEMBL4474448
 OpenBabel10172500453D

 15 15  0  0  0  0  0  0  0  0999 V2000
  146.3980  142.2340  151.4370 C   0  0  0  0  0  0  0  0  0  0  0  0
  146.8960  141.9230  152.7100 C   0  0  0  0  0  3  0  0  0  0  0  0
  148.2800  141.8770  152.9630 C   0  0  0  0  0  0  0  0  0  0  0  0
  149.1670  142.1830  151.9250 C   0  0  0  0  0  3  0  0  0  0  0  0
  148.6810  142.4980  150.6550 C   0  0  0  0  0  3  0  0  0  0  0  0
  147.3060  142.5200  150.4170 C   0  0  0  0  0  0  0  0  0  0  0  0
  146.9000  142.8220  149.1750 F   0  0  0  0  0  0  0  0  0  0  0  0
  144.4330  141.0110  150.8750 C   0  0  0  0  0  1  0  0  0  0  0  0
  145.0310  142.2110  151.3480 O   0  0  0  0  0  0  0  0  0  0  0  0
  148.7860  141.5000  154.3330 C   0  0  0  0  0  2  0  0  0  0  0  0
  147.9240  140.5500  154.9960 N   0  0  0  0  0  0  0  0  0  0  0  0
  148.0330  139.1970  154.7740 C   0  0  0  0  0  0  0  0  0  0  0  0
  147.0820  138.3540  155.5850 C   0  0  0  0  0  1  0  0  0  0  0  0
  148.8430  138.6940  154.0030 O   0  0  0  0  0  0  0  0  0  0  0  0
  147.2410  140.8790  155.6230 H   0  0  0  0  0  0  0  0  0  0  0  0
  1  2  1  0  0  0  0
  2  3  2  0  0  0  0
  3 10  1  0  0  0  0
  4  3  1  0  0  0  0
  5  4  2  0  0  0  0
  6  5  1  0  0  0  0
  6  1  2  0  0  0  0
  7  6  1  0  0  0  0
  8  9  1  0  0  0  0
  9  1  1  0  0  0  0
 10 11  1  0  0  0  0
 11 15  1  0  0  0  0
 12 11  1  0  0  0  0
 12 13  1  0  0  0  0
 14 12  2  0  0  0  0
M  END
>  <MODEL>
1

>  <REMARK>
 VINA RESULT:    -6.128      0.000      0.000
 INTER + INTRA:          -7.472
 INTER:                  -7.208
 INTRA:                  -0.264
 UNBOUND:                -0.270
  Name = CHEMBL4474448
  5 active torsions:
  status: ('A' for Active; 'I' for Inactive)
    1  A    between atoms: C_1  and  O_2
    2  A    between atoms: O_2  and  C_3
    3  A    between atoms: C_5  and  C_6
    4  A    between atoms: C_6  and  N_7
    5  A    between atoms: C_8  and  C_9
                            x       y       z     vdW  Elec       q    Type
                         _______ _______ _______ _____ _____    ______ ____

>  <TORSDO>
F 3

>  <SCORE>
-6.128

>  <RMSD_LB>
0.000

>  <RMSD_UB>
0.000

$$$$
CHEMBL4474448
 OpenBabel10172500453D

 15 15  0  0  0  0  0  0  0  0999 V2000
  144.8310  141.0770  151.1890 C   0  0  0  0  0  0  0  0  0  0  0  0
  144.5910  140.1780  152.2370 C   0  0  0  0  0  3  0  0  0  0  0  0
  145.2330  140.3150  153.4810 C   0  0  0  0  0  0  0  0  0  0  0  0
  146.1000  141.3960  153.6790 C   0  0  0  0  0  3  0  0  0  0  0  0
  146.3420  142.3000  152.6430 C   0  0  0  0  0  3  0  0  0  0  0  0
  145.7120  142.1380  151.4090 C   0  0  0  0  0  0  0  0  0  0  0  0
  145.9900  143.0340  150.4510 F   0  0  0  0  0  0  0  0  0  0  0  0
  143.0170  139.9400  150.1460 C   0  0  0  0  0  1  0  0  0  0  0  0
  144.1520  140.7900  150.0350 O   0  0  0  0  0  0  0  0  0  0  0  0
  144.9850  139.3070  154.5760 C   0  0  0  0  0  2  0  0  0  0  0  0
  146.1100  139.1830  155.4730 N   0  0  0  0  0  0  0  0  0  0  0  0
  146.9950  138.1340  155.3820 C   0  0  0  0  0  0  0  0  0  0  0  0
  148.1320  138.1910  156.3690 C   0  0  0  0  0  1  0  0  0  0  0  0
  146.9000  137.2290  154.5600 O   0  0  0  0  0  0  0  0  0  0  0  0
  146.2480  139.8660  156.1670 H   0  0  0  0  0  0  0  0  0  0  0  0
  1  6  2  0  0  0  0
  1  2  1  0  0  0  0
  2  3  2  0  0  0  0
  3  4  1  0  0  0  0
  3 10  1  0  0  0  0
  5  4  2  0  0  0  0
  6  5  1  0  0  0  0
  7  6  1  0  0  0  0
  9  8  1  0  0  0  0
  9  1  1  0  0  0  0
 10 11  1  0  0  0  0
 11 15  1  0  0  0  0
 12 11  1  0  0  0  0
 12 13  1  0  0  0  0
 14 12  2  0  0  0  0
M  END
>  <MODEL>
2

>  <REMARK>
 VINA RESULT:    -5.628      1.997      2.627
 INTER + INTRA:          -6.886
 INTER:                  -6.592
 INTRA:                  -0.293
 UNBOUND:                -0.270
  Name = CHEMBL4474448
  5 active torsions:
  status: ('A' for Active; 'I' for Inactive)
    1  A    between atoms: C_1  and  O_2
    2  A    between atoms: O_2  and  C_3
    3  A    between atoms: C_5  and  C_6
    4  A    between atoms: C_6  and  N_7
    5  A    between atoms: C_8  and  C_9
                            x       y       z     vdW  Elec       q    Type
                         _______ _______ _______ _____ _____    ______ ____

>  <TORSDO>
F 3

>  <SCORE>
-5.628

>  <RMSD_LB>
1.997

>  <RMSD_UB>
2.627

$$$$
CHEMBL4474448
 OpenBabel10172500453D

 15 15  0  0  0  0  0  0  0  0999 V2000
  134.7320  135.0330  155.9520 C   0  0  0  0  0  0  0  0  0  0  0  0
  135.8230  135.8390  155.5970 C   0  0  0  0  0  3  0  0  0  0  0  0
  136.7090  136.3400  156.5680 C   0  0  0  0  0  0  0  0  0  0  0  0
  136.5110  135.9920  157.9090 C   0  0  0  0  0  3  0  0  0  0  0  0
  135.4310  135.1850  158.2720 C   0  0  0  0  0  3  0  0  0  0  0  0
  134.5490  134.7130  157.2980 C   0  0  0  0  0  0  0  0  0  0  0  0
  133.5270  133.9490  157.7090 F   0  0  0  0  0  0  0  0  0  0  0  0
  133.9450  135.4950  153.7520 C   0  0  0  0  0  1  0  0  0  0  0  0
  133.9500  134.6490  154.8950 O   0  0  0  0  0  0  0  0  0  0  0  0
  137.8500  137.2390  156.1590 C   0  0  0  0  0  2  0  0  0  0  0  0
  138.0350  137.2760  154.7280 N   0  0  0  0  0  0  0  0  0  0  0  0
  138.7270  138.2920  154.1140 C   0  0  0  0  0  0  0  0  0  0  0  0
  138.8580  138.1430  152.6200 C   0  0  0  0  0  1  0  0  0  0  0  0
  139.2240  139.2400  154.7120 O   0  0  0  0  0  0  0  0  0  0  0  0
  137.6560  136.5540  154.1770 H   0  0  0  0  0  0  0  0  0  0  0  0
  1  6  1  0  0  0  0
  2  1  2  0  0  0  0
  2  3  1  0  0  0  0
  3  4  2  0  0  0  0
  4  5  1  0  0  0  0
  6  7  1  0  0  0  0
  6  5  2  0  0  0  0
  8  9  1  0  0  0  0
  9  1  1  0  0  0  0
 10  3  1  0  0  0  0
 11 10  1  0  0  0  0
 12 14  2  0  0  0  0
 12 11  1  0  0  0  0
 13 12  1  0  0  0  0
 15 11  1  0  0  0  0
M  END
>  <MODEL>
3

>  <REMARK>
 VINA RESULT:    -5.400     11.504     13.430
 INTER + INTRA:          -6.617
 INTER:                  -6.388
 INTRA:                  -0.229
 UNBOUND:                -0.270
  Name = CHEMBL4474448
  5 active torsions:
  status: ('A' for Active; 'I' for Inactive)
    1  A    between atoms: C_1  and  O_2
    2  A    between atoms: O_2  and  C_3
    3  A    between atoms: C_5  and  C_6
    4  A    between atoms: C_6  and  N_7
    5  A    between atoms: C_8  and  C_9
                            x       y       z     vdW  Elec       q    Type
                         _______ _______ _______ _____ _____    ______ ____

>  <TORSDO>
F 3

>  <SCORE>
-5.400

>  <RMSD_LB>
11.504

>  <RMSD_UB>
13.430

$$$$
CHEMBL4474448
 OpenBabel10172500453D

 15 15  0  0  0  0  0  0  0  0999 V2000
  133.7810  135.2830  150.8200 C   0  0  0  0  0  0  0  0  0  0  0  0
  133.5750  135.6360  152.1610 C   0  0  0  0  0  3  0  0  0  0  0  0
  134.5060  135.2950  153.1590 C   0  0  0  0  0  0  0  0  0  0  0  0
  135.6750  134.6200  152.7900 C   0  0  0  0  0  3  0  0  0  0  0  0
  135.8920  134.2680  151.4570 C   0  0  0  0  0  3  0  0  0  0  0  0
  134.9480  134.5970  150.4830 C   0  0  0  0  0  0  0  0  0  0  0  0
  135.2090  134.2250  149.2210 F   0  0  0  0  0  0  0  0  0  0  0  0
  133.0000  136.8070  149.1660 C   0  0  0  0  0  1  0  0  0  0  0  0
  132.7700  135.6630  149.9770 O   0  0  0  0  0  0  0  0  0  0  0  0
  134.2370  135.6540  154.5990 C   0  0  0  0  0  2  0  0  0  0  0  0
  135.3820  135.4190  155.4470 N   0  0  0  0  0  0  0  0  0  0  0  0
  136.2500  136.4300  155.7870 C   0  0  0  0  0  0  0  0  0  0  0  0
  137.3620  136.0110  156.7150 C   0  0  0  0  0  1  0  0  0  0  0  0
  136.1370  137.5870  155.3990 O   0  0  0  0  0  0  0  0  0  0  0  0
  135.5460  134.5110  155.7910 H   0  0  0  0  0  0  0  0  0  0  0  0
  1  2  1  0  0  0  0
  2  3  2  0  0  0  0
  3 10  1  0  0  0  0
  4  3  1  0  0  0  0
  5  4  2  0  0  0  0
  6  1  2  0  0  0  0
  6  5  1  0  0  0  0
  7  6  1  0  0  0  0
  8  9  1  0  0  0  0
  9  1  1  0  0  0  0
 10 11  1  0  0  0  0
 11 12  1  0  0  0  0
 11 15  1  0  0  0  0
 12 13  1  0  0  0  0
 14 12  2  0  0  0  0
M  END
>  <MODEL>
4

>  <REMARK>
 VINA RESULT:    -5.360     12.611     14.005
 INTER + INTRA:          -6.570
 INTER:                  -6.308
 INTRA:                  -0.262
 UNBOUND:                -0.270
  Name = CHEMBL4474448
  5 active torsions:
  status: ('A' for Active; 'I' for Inactive)
    1  A    between atoms: C_1  and  O_2
    2  A    between atoms: O_2  and  C_3
    3  A    between atoms: C_5  and  C_6
    4  A    between atoms: C_6  and  N_7
    5  A    between atoms: C_8  and  C_9
                            x       y       z     vdW  Elec       q    Type
                         _______ _______ _______ _____ _____    ______ ____

>  <TORSDO>
F 3

>  <SCORE>
-5.360

>  <RMSD_LB>
12.611

>  <RMSD_UB>
14.005

$$$$
CHEMBL4474448
 OpenBabel10172500453D

 15 15  0  0  0  0  0  0  0  0999 V2000
  134.1060  135.4650  147.3830 C   0  0  0  0  0  0  0  0  0  0  0  0
  133.6670  135.8270  148.6630 C   0  0  0  0  0  3  0  0  0  0  0  0
  132.9880  134.9130  149.4900 C   0  0  0  0  0  0  0  0  0  0  0  0
  132.7850  133.6070  149.0300 C   0  0  0  0  0  3  0  0  0  0  0  0
  133.2220  133.2350  147.7580 C   0  0  0  0  0  3  0  0  0  0  0  0
  133.8760  134.1610  146.9420 C   0  0  0  0  0  0  0  0  0  0  0  0
  134.2670  133.7460  145.7280 F   0  0  0  0  0  0  0  0  0  0  0  0
  135.8910  137.0380  147.2790 C   0  0  0  0  0  1  0  0  0  0  0  0
  134.7240  136.4750  146.6940 O   0  0  0  0  0  0  0  0  0  0  0  0
  132.4920  135.3450  150.8480 C   0  0  0  0  0  2  0  0  0  0  0  0
  133.0850  134.5780  151.9190 N   0  0  0  0  0  0  0  0  0  0  0  0
  133.8990  135.1610  152.8600 C   0  0  0  0  0  0  0  0  0  0  0  0
  134.3920  134.2180  153.9280 C   0  0  0  0  0  1  0  0  0  0  0  0
  134.1970  136.3510  152.8650 O   0  0  0  0  0  0  0  0  0  0  0  0
  132.9000  133.6130  151.9760 H   0  0  0  0  0  0  0  0  0  0  0  0
  1  2  1  0  0  0  0
  2  3  2  0  0  0  0
  3 10  1  0  0  0  0
  4  3  1  0  0  0  0
  5  4  2  0  0  0  0
  6  1  2  0  0  0  0
  6  5  1  0  0  0  0
  7  6  1  0  0  0  0
  9  8  1  0  0  0  0
  9  1  1  0  0  0  0
 10 11  1  0  0  0  0
 11 15  1  0  0  0  0
 11 12  1  0  0  0  0
 12 14  2  0  0  0  0
 12 13  1  0  0  0  0
M  END
>  <MODEL>
5

>  <REMARK>
 VINA RESULT:    -5.295     14.038     15.586
 INTER + INTRA:          -6.494
 INTER:                  -6.251
 INTRA:                  -0.243
 UNBOUND:                -0.270
  Name = CHEMBL4474448
  5 active torsions:
  status: ('A' for Active; 'I' for Inactive)
    1  A    between atoms: C_1  and  O_2
    2  A    between atoms: O_2  and  C_3
    3  A    between atoms: C_5  and  C_6
    4  A    between atoms: C_6  and  N_7
    5  A    between atoms: C_8  and  C_9
                            x       y       z     vdW  Elec       q    Type
                         _______ _______ _______ _____ _____    ______ ____

>  <TORSDO>
F 3

>  <SCORE>
-5.295

>  <RMSD_LB>
14.038

>  <RMSD_UB>
15.586

$$$$
CHEMBL4474448
 OpenBabel10172500453D

 15 15  0  0  0  0  0  0  0  0999 V2000
  146.4540  140.4350  150.1100 C   0  0  0  0  0  0  0  0  0  0  0  0
  146.0870  140.0610  151.4100 C   0  0  0  0  0  3  0  0  0  0  0  0
  145.7200  141.0200  152.3720 C   0  0  0  0  0  0  0  0  0  0  0  0
  145.6900  142.3700  152.0030 C   0  0  0  0  0  3  0  0  0  0  0  0
  146.0500  142.7520  150.7090 C   0  0  0  0  0  3  0  0  0  0  0  0
  146.4300  141.7890  149.7730 C   0  0  0  0  0  0  0  0  0  0  0  0
  146.7710  142.2180  148.5500 F   0  0  0  0  0  0  0  0  0  0  0  0
  145.8290  138.9080  148.3920 C   0  0  0  0  0  1  0  0  0  0  0  0
  146.8100  139.3870  149.3030 O   0  0  0  0  0  0  0  0  0  0  0  0
  145.3690  140.5900  153.7740 C   0  0  0  0  0  2  0  0  0  0  0  0
  146.5240  140.1490  154.5200 N   0  0  0  0  0  0  0  0  0  0  0  0
  146.6790  138.8400  154.9070 C   0  0  0  0  0  0  0  0  0  0  0  0
  147.9660  138.5540  155.6380 C   0  0  0  0  0  1  0  0  0  0  0  0
  145.8620  137.9560  154.6720 O   0  0  0  0  0  0  0  0  0  0  0  0
  147.2200  140.8040  154.7560 H   0  0  0  0  0  0  0  0  0  0  0  0
  1  2  1  0  0  0  0
  2  3  2  0  0  0  0
  3 10  1  0  0  0  0
  4  3  1  0  0  0  0
  5  4  2  0  0  0  0
  6  1  2  0  0  0  0
  6  5  1  0  0  0  0
  7  6  1  0  0  0  0
  8  9  1  0  0  0  0
  9  1  1  0  0  0  0
 10 11  1  0  0  0  0
 11 15  1  0  0  0  0
 11 12  1  0  0  0  0
 12 13  1  0  0  0  0
 14 12  2  0  0  0  0
M  END
>  <MODEL>
6

>  <REMARK>
 VINA RESULT:    -5.091      2.322      2.615
 INTER + INTRA:          -6.254
 INTER:                  -5.956
 INTRA:                  -0.297
 UNBOUND:                -0.270
  Name = CHEMBL4474448
  5 active torsions:
  status: ('A' for Active; 'I' for Inactive)
    1  A    between atoms: C_1  and  O_2
    2  A    between atoms: O_2  and  C_3
    3  A    between atoms: C_5  and  C_6
    4  A    between atoms: C_6  and  N_7
    5  A    between atoms: C_8  and  C_9
                            x       y       z     vdW  Elec       q    Type
                         _______ _______ _______ _____ _____    ______ ____

>  <TORSDO>
F 3

>  <SCORE>
-5.091

>  <RMSD_LB>
2.322

>  <RMSD_UB>
2.615

$$$$
CHEMBL4474448
 OpenBabel10172500453D

 15 15  0  0  0  0  0  0  0  0999 V2000
  147.7330  141.9740  151.7040 C   0  0  0  0  0  0  0  0  0  0  0  0
  146.6270  141.4140  152.3580 C   0  0  0  0  0  3  0  0  0  0  0  0
  146.7150  140.9580  153.6860 C   0  0  0  0  0  0  0  0  0  0  0  0
  147.9270  141.1030  154.3720 C   0  0  0  0  0  3  0  0  0  0  0  0
  149.0330  141.6630  153.7310 C   0  0  0  0  0  3  0  0  0  0  0  0
  148.9340  142.0930  152.4070 C   0  0  0  0  0  0  0  0  0  0  0  0
  150.0320  142.6160  151.8430 F   0  0  0  0  0  0  0  0  0  0  0  0
  146.1710  142.7610  150.0880 C   0  0  0  0  0  1  0  0  0  0  0  0
  147.4920  142.3430  150.4080 O   0  0  0  0  0  0  0  0  0  0  0  0
  145.5180  140.3230  154.3490 C   0  0  0  0  0  2  0  0  0  0  0  0
  144.9150  139.2980  153.5300 N   0  0  0  0  0  0  0  0  0  0  0  0
  143.5960  138.9400  153.6740 C   0  0  0  0  0  0  0  0  0  0  0  0
  143.1270  137.8860  152.7040 C   0  0  0  0  0  1  0  0  0  0  0  0
  142.8390  139.4370  154.5010 O   0  0  0  0  0  0  0  0  0  0  0  0
  145.4630  138.8450  152.8490 H   0  0  0  0  0  0  0  0  0  0  0  0
  1  2  2  0  0  0  0
  1  6  1  0  0  0  0
  2  3  1  0  0  0  0
  3 10  1  0  0  0  0
  3  4  2  0  0  0  0
  5  4  1  0  0  0  0
  6  5  2  0  0  0  0
  7  6  1  0  0  0  0
  8  9  1  0  0  0  0
  9  1  1  0  0  0  0
 11 12  1  0  0  0  0
 11 10  1  0  0  0  0
 12 14  2  0  0  0  0
 13 12  1  0  0  0  0
 15 11  1  0  0  0  0
M  END
>  <MODEL>
7

>  <REMARK>
 VINA RESULT:    -5.065      2.688      3.478
 INTER + INTRA:          -6.223
 INTER:                  -6.006
 INTRA:                  -0.217
 UNBOUND:                -0.270
  Name = CHEMBL4474448
  5 active torsions:
  status: ('A' for Active; 'I' for Inactive)
    1  A    between atoms: C_1  and  O_2
    2  A    between atoms: O_2  and  C_3
    3  A    between atoms: C_5  and  C_6
    4  A    between atoms: C_6  and  N_7
    5  A    between atoms: C_8  and  C_9
                            x       y       z     vdW  Elec       q    Type
                         _______ _______ _______ _____ _____    ______ ____

>  <TORSDO>
F 3

>  <SCORE>
-5.065

>  <RMSD_LB>
2.688

>  <RMSD_UB>
3.478

$$$$
CHEMBL4474448
 OpenBabel10172500453D

 15 15  0  0  0  0  0  0  0  0999 V2000
  133.3080  134.2830  150.0330 C   0  0  0  0  0  0  0  0  0  0  0  0
  132.8820  135.4970  149.4770 C   0  0  0  0  0  3  0  0  0  0  0  0
  132.9610  135.7360  148.0930 C   0  0  0  0  0  0  0  0  0  0  0  0
  133.4430  134.7210  147.2580 C   0  0  0  0  0  3  0  0  0  0  0  0
  133.8650  133.5060  147.8010 C   0  0  0  0  0  3  0  0  0  0  0  0
  133.7990  133.2930  149.1790 C   0  0  0  0  0  0  0  0  0  0  0  0
  134.2250  132.1100  149.6420 F   0  0  0  0  0  0  0  0  0  0  0  0
  134.3010  134.6670  152.1630 C   0  0  0  0  0  1  0  0  0  0  0  0
  133.1920  134.2170  151.3960 O   0  0  0  0  0  0  0  0  0  0  0  0
  132.5320  137.0680  147.5290 C   0  0  0  0  0  2  0  0  0  0  0  0
  133.6400  137.8130  146.9790 N   0  0  0  0  0  0  0  0  0  0  0  0
  133.7240  138.1010  145.6370 C   0  0  0  0  0  0  0  0  0  0  0  0
  134.9240  138.9250  145.2500 C   0  0  0  0  0  1  0  0  0  0  0  0
  132.8920  137.7450  144.8090 O   0  0  0  0  0  0  0  0  0  0  0  0
  134.3530  138.1250  147.5810 H   0  0  0  0  0  0  0  0  0  0  0  0
  1  9  1  0  0  0  0
  2  1  1  0  0  0  0
  3  2  2  0  0  0  0
  4  5  2  0  0  0  0
  4  3  1  0  0  0  0
  5  6  1  0  0  0  0
  6  7  1  0  0  0  0
  6  1  2  0  0  0  0
  9  8  1  0  0  0  0
 10  3  1  0  0  0  0
 11 10  1  0  0  0  0
 11 15  1  0  0  0  0
 12 11  1  0  0  0  0
 13 12  1  0  0  0  0
 14 12  2  0  0  0  0
M  END
>  <MODEL>
8

>  <REMARK>
 VINA RESULT:    -4.954     14.969     16.470
 INTER + INTRA:          -6.093
 INTER:                  -5.814
 INTRA:                  -0.279
 UNBOUND:                -0.270
  Name = CHEMBL4474448
  5 active torsions:
  status: ('A' for Active; 'I' for Inactive)
    1  A    between atoms: C_1  and  O_2
    2  A    between atoms: O_2  and  C_3
    3  A    between atoms: C_5  and  C_6
    4  A    between atoms: C_6  and  N_7
    5  A    between atoms: C_8  and  C_9
                            x       y       z     vdW  Elec       q    Type
                         _______ _______ _______ _____ _____    ______ ____

>  <TORSDO>
F 3

>  <SCORE>
-4.954

>  <RMSD_LB>
14.969

>  <RMSD_UB>
16.470

$$$$
CHEMBL4474448
 OpenBabel10172500453D

 15 15  0  0  0  0  0  0  0  0999 V2000
  147.6910  139.7930  152.8030 C   0  0  0  0  0  0  0  0  0  0  0  0
  146.8440  140.2630  151.7900 C   0  0  0  0  0  3  0  0  0  0  0  0
  146.1850  141.5010  151.9020 C   0  0  0  0  0  0  0  0  0  0  0  0
  146.4160  142.2890  153.0350 C   0  0  0  0  0  3  0  0  0  0  0  0
  147.2620  141.8330  154.0480 C   0  0  0  0  0  3  0  0  0  0  0  0
  147.8910  140.5930  153.9300 C   0  0  0  0  0  0  0  0  0  0  0  0
  148.6870  140.2060  154.9380 F   0  0  0  0  0  0  0  0  0  0  0  0
  147.7080  137.4620  153.2910 C   0  0  0  0  0  1  0  0  0  0  0  0
  148.2330  138.5600  152.5560 O   0  0  0  0  0  0  0  0  0  0  0  0
  145.2480  141.9600  150.8130 C   0  0  0  0  0  2  0  0  0  0  0  0
  145.1570  141.0110  149.7290 N   0  0  0  0  0  0  0  0  0  0  0  0
  144.0430  140.2270  149.5450 C   0  0  0  0  0  0  0  0  0  0  0  0
  144.1070  139.3270  148.3370 C   0  0  0  0  0  1  0  0  0  0  0  0
  143.0590  140.2550  150.2760 O   0  0  0  0  0  0  0  0  0  0  0  0
  145.9130  140.9230  149.1050 H   0  0  0  0  0  0  0  0  0  0  0  0
  1  6  1  0  0  0  0
  2  3  1  0  0  0  0
  2  1  2  0  0  0  0
  3  4  2  0  0  0  0
  4  5  1  0  0  0  0
  6  5  2  0  0  0  0
  6  7  1  0  0  0  0
  9  1  1  0  0  0  0
  9  8  1  0  0  0  0
 10  3  1  0  0  0  0
 11 10  1  0  0  0  0
 12 11  1  0  0  0  0
 12 14  2  0  0  0  0
 13 12  1  0  0  0  0
 15 11  1  0  0  0  0
M  END
>  <MODEL>
9

>  <REMARK>
 VINA RESULT:    -4.947      3.019      5.158
 INTER + INTRA:          -6.085
 INTER:                  -5.815
 INTRA:                  -0.270
 UNBOUND:                -0.270
  Name = CHEMBL4474448
  5 active torsions:
  status: ('A' for Active; 'I' for Inactive)
    1  A    between atoms: C_1  and  O_2
    2  A    between atoms: O_2  and  C_3
    3  A    between atoms: C_5  and  C_6
    4  A    between atoms: C_6  and  N_7
    5  A    between atoms: C_8  and  C_9
                            x       y       z     vdW  Elec       q    Type
                         _______ _______ _______ _____ _____    ______ ____

>  <TORSDO>
F 3

>  <SCORE>
-4.947

>  <RMSD_LB>
3.019

>  <RMSD_UB>
5.158

$$$$
