CHEMBL3286487
 OpenBabel10162523393D

 27 29  0  0  0  0  0  0  0  0999 V2000
  138.7820  137.6800  154.8080 N   0  0  0  0  0  0  0  0  0  0  0  0
  139.2570  138.8000  154.1670 C   0  0  0  0  0  0  0  0  0  0  0  0
  138.6900  139.8840  154.1500 O   0  0  0  0  0  0  0  0  0  0  0  0
  139.3010  136.8450  154.7490 H   0  0  0  0  0  0  0  0  0  0  0  0
  140.5500  138.5580  153.4830 C   0  0  0  0  0  3  0  0  0  0  0  0
  140.6530  137.6800  152.4700 C   0  0  0  0  0  3  0  0  0  0  0  0
  141.8620  137.3810  151.7630 C   0  0  0  0  0  0  0  0  0  0  0  0
  141.9730  137.2200  150.3970 C   0  0  0  0  0  3  0  0  0  0  0  0
  143.2830  136.9670  150.1010 N   0  0  0  0  0  0  0  0  0  0  0  0
  144.0370  136.9460  151.2480 C   0  0  0  0  0  0  0  0  0  0  0  0
  145.4100  136.7220  151.4110 C   0  0  0  0  0  3  0  0  0  0  0  0
  145.9210  136.7460  152.7100 C   0  0  0  0  0  3  0  0  0  0  0  0
  145.0900  136.9910  153.7990 C   0  0  0  0  0  3  0  0  0  0  0  0
  143.7200  137.2230  153.6190 C   0  0  0  0  0  3  0  0  0  0  0  0
  143.1720  137.1980  152.3170 C   0  0  0  0  0  0  0  0  0  0  0  0
  143.6360  136.8220  149.1930 H   0  0  0  0  0  0  0  0  0  0  0  0
  137.5500  137.6850  155.5650 C   0  0  0  0  0  2  0  0  0  0  0  0
  134.8720  134.9530  155.6600 C   0  0  0  0  0  0  0  0  0  0  0  0
  135.7420  135.9780  156.0490 C   0  0  0  0  0  3  0  0  0  0  0  0
  136.5790  136.6190  155.1160 C   0  0  0  0  0  0  0  0  0  0  0  0
  136.5390  136.2050  153.7780 C   0  0  0  0  0  3  0  0  0  0  0  0
  135.6820  135.1780  153.3780 C   0  0  0  0  0  3  0  0  0  0  0  0
  134.8560  134.5600  154.3160 C   0  0  0  0  0  0  0  0  0  0  0  0
  134.0300  134.6590  157.8700 C   0  0  0  0  0  1  0  0  0  0  0  0
  134.0250  134.2800  156.5010 O   0  0  0  0  0  0  0  0  0  0  0  0
  134.0200  133.5480  153.9240 O   0  0  0  0  0  0  0  0  0  0  0  0
  133.1980  133.7480  153.5220 H   0  0  0  0  0  0  0  0  0  0  0  0
  1 17  1  0  0  0  0
  2  1  1  0  0  0  0
  3  2  2  0  0  0  0
  4  1  1  0  0  0  0
  5  2  1  0  0  0  0
  6  5  2  0  0  0  0
  7 15  1  0  0  0  0
  7  6  1  0  0  0  0
  8  7  2  0  0  0  0
  9  8  1  0  0  0  0
  9 10  1  0  0  0  0
 10 11  2  0  0  0  0
 10 15  1  0  0  0  0
 11 12  1  0  0  0  0
 12 13  2  0  0  0  0
 14 13  1  0  0  0  0
 15 14  2  0  0  0  0
 16  9  1  0  0  0  0
 18 19  1  0  0  0  0
 18 25  1  0  0  0  0
 20 17  1  0  0  0  0
 20 19  2  0  0  0  0
 21 20  1  0  0  0  0
 22 21  2  0  0  0  0
 22 23  1  0  0  0  0
 23 18  2  0  0  0  0
 25 24  1  0  0  0  0
 26 23  1  0  0  0  0
 27 26  1  0  0  0  0
M  END
>  <MODEL>
1

>  <REMARK>
 VINA RESULT:    -7.919      0.000      0.000
 INTER + INTRA:         -11.118
 INTER:                 -10.590
 INTRA:                  -0.528
 UNBOUND:                -0.653
  Name = CHEMBL3286487
  7 active torsions:
  status: ('A' for Active; 'I' for Inactive)
    1  A    between atoms: C_1  and  O_2
    2  A    between atoms: O_2  and  C_3
    3  A    between atoms: C_5  and  C_6
    4  A    between atoms: C_6  and  N_7
    5  A    between atoms: C_8  and  C_10
    6  A    between atoms: C_11  and  C_12
    7  A    between atoms: C_23  and  O_24
                            x       y       z     vdW  Elec       q    Type
                         _______ _______ _______ _____ _____    ______ ____

>  <TORSDO>
F 6

>  <SCORE>
-7.919

>  <RMSD_LB>
0.000

>  <RMSD_UB>
0.000

$$$$
CHEMBL3286487
 OpenBabel10162523393D

 27 29  0  0  0  0  0  0  0  0999 V2000
  138.6810  137.2850  155.2740 N   0  0  0  0  0  0  0  0  0  0  0  0
  137.3760  137.7170  155.2590 C   0  0  0  0  0  0  0  0  0  0  0  0
  137.0160  138.8510  155.5450 O   0  0  0  0  0  0  0  0  0  0  0  0
  138.8720  136.3460  155.0470 H   0  0  0  0  0  0  0  0  0  0  0  0
  136.4290  136.6500  154.8560 C   0  0  0  0  0  3  0  0  0  0  0  0
  136.3320  136.2470  153.5770 C   0  0  0  0  0  3  0  0  0  0  0  0
  135.4390  135.2330  153.1020 C   0  0  0  0  0  0  0  0  0  0  0  0
  134.5390  134.5310  153.8770 C   0  0  0  0  0  3  0  0  0  0  0  0
  133.8540  133.6710  153.0650 N   0  0  0  0  0  0  0  0  0  0  0  0
  134.2950  133.7840  151.7700 C   0  0  0  0  0  0  0  0  0  0  0  0
  133.8790  133.0980  150.6210 C   0  0  0  0  0  3  0  0  0  0  0  0
  134.5130  133.4060  149.4170 C   0  0  0  0  0  3  0  0  0  0  0  0
  135.5190  134.3670  149.3650 C   0  0  0  0  0  3  0  0  0  0  0  0
  135.9170  135.0510  150.5220 C   0  0  0  0  0  3  0  0  0  0  0  0
  135.2980  134.7560  151.7570 C   0  0  0  0  0  0  0  0  0  0  0  0
  133.1440  133.0580  153.3660 H   0  0  0  0  0  0  0  0  0  0  0  0
  139.7830  138.1600  155.6110 C   0  0  0  0  0  2  0  0  0  0  0  0
  142.9340  139.1420  153.6750 C   0  0  0  0  0  0  0  0  0  0  0  0
  142.0080  138.9680  154.7100 C   0  0  0  0  0  3  0  0  0  0  0  0
  140.7920  138.2900  154.4960 C   0  0  0  0  0  0  0  0  0  0  0  0
  140.5120  137.7970  153.2140 C   0  0  0  0  0  3  0  0  0  0  0  0
  141.4230  137.9720  152.1710 C   0  0  0  0  0  3  0  0  0  0  0  0
  142.6240  138.6400  152.4050 C   0  0  0  0  0  0  0  0  0  0  0  0
  145.1390  139.1510  154.5790 C   0  0  0  0  0  1  0  0  0  0  0  0
  144.1370  139.7870  153.7970 O   0  0  0  0  0  0  0  0  0  0  0  0
  143.5140  138.8170  151.3790 O   0  0  0  0  0  0  0  0  0  0  0  0
  144.2540  139.3800  151.4920 H   0  0  0  0  0  0  0  0  0  0  0  0
  1 17  1  0  0  0  0
  2  1  1  0  0  0  0
  2  3  2  0  0  0  0
  4  1  1  0  0  0  0
  5  2  1  0  0  0  0
  6  5  2  0  0  0  0
  7  6  1  0  0  0  0
  7  8  2  0  0  0  0
  9 16  1  0  0  0  0
  9  8  1  0  0  0  0
 10  9  1  0  0  0  0
 11 10  2  0  0  0  0
 12 11  1  0  0  0  0
 13 12  2  0  0  0  0
 13 14  1  0  0  0  0
 14 15  2  0  0  0  0
 15 10  1  0  0  0  0
 15  7  1  0  0  0  0
 18 25  1  0  0  0  0
 18 19  1  0  0  0  0
 20 19  2  0  0  0  0
 20 17  1  0  0  0  0
 21 20  1  0  0  0  0
 22 23  1  0  0  0  0
 22 21  2  0  0  0  0
 23 18  2  0  0  0  0
 25 24  1  0  0  0  0
 26 27  1  0  0  0  0
 26 23  1  0  0  0  0
M  END
>  <MODEL>
2

>  <REMARK>
 VINA RESULT:    -7.619      2.908      8.356
 INTER + INTRA:         -10.722
 INTER:                 -10.104
 INTRA:                  -0.619
 UNBOUND:                -0.653
  Name = CHEMBL3286487
  7 active torsions:
  status: ('A' for Active; 'I' for Inactive)
    1  A    between atoms: C_1  and  O_2
    2  A    between atoms: O_2  and  C_3
    3  A    between atoms: C_5  and  C_6
    4  A    between atoms: C_6  and  N_7
    5  A    between atoms: C_8  and  C_10
    6  A    between atoms: C_11  and  C_12
    7  A    between atoms: C_23  and  O_24
                            x       y       z     vdW  Elec       q    Type
                         _______ _______ _______ _____ _____    ______ ____

>  <TORSDO>
F 6

>  <SCORE>
-7.619

>  <RMSD_LB>
2.908

>  <RMSD_UB>
8.356

$$$$
CHEMBL3286487
 OpenBabel10162523393D

 27 29  0  0  0  0  0  0  0  0999 V2000
  135.3690  135.8540  154.7190 N   0  0  0  0  0  0  0  0  0  0  0  0
  134.5310  134.7830  154.5160 C   0  0  0  0  0  0  0  0  0  0  0  0
  134.3300  133.8930  155.3320 O   0  0  0  0  0  0  0  0  0  0  0  0
  135.4820  136.5110  153.9940 H   0  0  0  0  0  0  0  0  0  0  0  0
  133.8830  134.8130  153.1840 C   0  0  0  0  0  3  0  0  0  0  0  0
  134.4070  135.5170  152.1650 C   0  0  0  0  0  3  0  0  0  0  0  0
  133.8410  135.6070  150.8520 C   0  0  0  0  0  0  0  0  0  0  0  0
  133.2010  136.7120  150.3300 C   0  0  0  0  0  3  0  0  0  0  0  0
  132.8220  136.4220  149.0490 N   0  0  0  0  0  0  0  0  0  0  0  0
  133.1900  135.1410  148.7210 C   0  0  0  0  0  0  0  0  0  0  0  0
  133.0000  134.4350  147.5260 C   0  0  0  0  0  3  0  0  0  0  0  0
  133.4720  133.1230  147.4660 C   0  0  0  0  0  3  0  0  0  0  0  0
  134.1130  132.5440  148.5580 C   0  0  0  0  0  3  0  0  0  0  0  0
  134.3030  133.2670  149.7440 C   0  0  0  0  0  3  0  0  0  0  0  0
  133.8310  134.5950  149.8360 C   0  0  0  0  0  0  0  0  0  0  0  0
  132.3530  137.0440  148.4470 H   0  0  0  0  0  0  0  0  0  0  0  0
  136.0890  136.0500  155.9570 C   0  0  0  0  0  2  0  0  0  0  0  0
  138.8730  138.1230  154.3460 C   0  0  0  0  0  0  0  0  0  0  0  0
  137.6610  137.4540  154.5520 C   0  0  0  0  0  3  0  0  0  0  0  0
  137.3790  136.8130  155.7740 C   0  0  0  0  0  0  0  0  0  0  0  0
  138.3440  136.8440  156.7900 C   0  0  0  0  0  3  0  0  0  0  0  0
  139.5600  137.5020  156.5940 C   0  0  0  0  0  3  0  0  0  0  0  0
  139.8170  138.1350  155.3800 C   0  0  0  0  0  0  0  0  0  0  0  0
  139.7760  137.9840  152.1450 C   0  0  0  0  0  1  0  0  0  0  0  0
  139.2260  138.7720  153.1920 O   0  0  0  0  0  0  0  0  0  0  0  0
  141.0140  138.7740  155.1870 O   0  0  0  0  0  0  0  0  0  0  0  0
  141.0380  139.6040  154.7550 H   0  0  0  0  0  0  0  0  0  0  0  0
  1 17  1  0  0  0  0
  2  1  1  0  0  0  0
  2  3  2  0  0  0  0
  4  1  1  0  0  0  0
  5  2  1  0  0  0  0
  6  5  2  0  0  0  0
  7  6  1  0  0  0  0
  8  7  2  0  0  0  0
  9  8  1  0  0  0  0
 10  9  1  0  0  0  0
 10 15  1  0  0  0  0
 11 10  2  0  0  0  0
 12 11  1  0  0  0  0
 12 13  2  0  0  0  0
 13 14  1  0  0  0  0
 14 15  2  0  0  0  0
 15  7  1  0  0  0  0
 16  9  1  0  0  0  0
 18 19  2  0  0  0  0
 18 23  1  0  0  0  0
 19 20  1  0  0  0  0
 20 17  1  0  0  0  0
 20 21  2  0  0  0  0
 22 21  1  0  0  0  0
 23 22  2  0  0  0  0
 24 25  1  0  0  0  0
 25 18  1  0  0  0  0
 26 23  1  0  0  0  0
 27 26  1  0  0  0  0
M  END
>  <MODEL>
3

>  <REMARK>
 VINA RESULT:    -7.605      3.685      8.391
 INTER + INTRA:         -10.703
 INTER:                 -10.044
 INTRA:                  -0.658
 UNBOUND:                -0.653
  Name = CHEMBL3286487
  7 active torsions:
  status: ('A' for Active; 'I' for Inactive)
    1  A    between atoms: C_1  and  O_2
    2  A    between atoms: O_2  and  C_3
    3  A    between atoms: C_5  and  C_6
    4  A    between atoms: C_6  and  N_7
    5  A    between atoms: C_8  and  C_10
    6  A    between atoms: C_11  and  C_12
    7  A    between atoms: C_23  and  O_24
                            x       y       z     vdW  Elec       q    Type
                         _______ _______ _______ _____ _____    ______ ____

>  <TORSDO>
F 6

>  <SCORE>
-7.605

>  <RMSD_LB>
3.685

>  <RMSD_UB>
8.391

$$$$
CHEMBL3286487
 OpenBabel10162523393D

 27 29  0  0  0  0  0  0  0  0999 V2000
  140.8690  138.6200  150.7150 N   0  0  0  0  0  0  0  0  0  0  0  0
  141.0550  139.7980  150.0310 C   0  0  0  0  0  0  0  0  0  0  0  0
  140.1550  140.5530  149.6890 O   0  0  0  0  0  0  0  0  0  0  0  0
  141.6550  138.0680  150.9300 H   0  0  0  0  0  0  0  0  0  0  0  0
  142.4840  140.0660  149.7410 C   0  0  0  0  0  3  0  0  0  0  0  0
  143.4040  140.0920  150.7200 C   0  0  0  0  0  3  0  0  0  0  0  0
  144.8000  140.3520  150.5290 C   0  0  0  0  0  0  0  0  0  0  0  0
  145.5220  140.0540  149.3920 C   0  0  0  0  0  3  0  0  0  0  0  0
  146.8090  140.4720  149.5790 N   0  0  0  0  0  0  0  0  0  0  0  0
  146.9530  141.0300  150.8250 C   0  0  0  0  0  0  0  0  0  0  0  0
  148.0890  141.5790  151.4330 C   0  0  0  0  0  3  0  0  0  0  0  0
  147.9560  142.0740  152.7310 C   0  0  0  0  0  3  0  0  0  0  0  0
  146.7310  142.0260  153.3900 C   0  0  0  0  0  3  0  0  0  0  0  0
  145.6010  141.4820  152.7650 C   0  0  0  0  0  3  0  0  0  0  0  0
  145.7070  140.9670  151.4540 C   0  0  0  0  0  0  0  0  0  0  0  0
  147.5310  140.3860  148.9150 H   0  0  0  0  0  0  0  0  0  0  0  0
  139.5610  138.1650  151.1310 C   0  0  0  0  0  2  0  0  0  0  0  0
  140.3240  138.4870  154.8670 C   0  0  0  0  0  0  0  0  0  0  0  0
  140.4550  138.5200  153.4740 C   0  0  0  0  0  3  0  0  0  0  0  0
  139.3820  138.1760  152.6300 C   0  0  0  0  0  0  0  0  0  0  0  0
  138.1680  137.7820  153.2100 C   0  0  0  0  0  3  0  0  0  0  0  0
  138.0260  137.7370  154.5990 C   0  0  0  0  0  3  0  0  0  0  0  0
  139.0990  138.0880  155.4160 C   0  0  0  0  0  0  0  0  0  0  0  0
  142.4300  139.5310  155.2580 C   0  0  0  0  0  1  0  0  0  0  0  0
  141.3150  138.8070  155.7580 O   0  0  0  0  0  0  0  0  0  0  0  0
  138.9610  138.0360  156.7780 O   0  0  0  0  0  0  0  0  0  0  0  0
  138.7250  138.8070  157.2550 H   0  0  0  0  0  0  0  0  0  0  0  0
  1  4  1  0  0  0  0
  1 17  1  0  0  0  0
  2  1  1  0  0  0  0
  3  2  2  0  0  0  0
  5  2  1  0  0  0  0
  5  6  2  0  0  0  0
  7  6  1  0  0  0  0
  7 15  1  0  0  0  0
  8  9  1  0  0  0  0
  8  7  2  0  0  0  0
  9 10  1  0  0  0  0
 10 11  2  0  0  0  0
 10 15  1  0  0  0  0
 11 12  1  0  0  0  0
 12 13  2  0  0  0  0
 14 13  1  0  0  0  0
 15 14  2  0  0  0  0
 16  9  1  0  0  0  0
 17 20  1  0  0  0  0
 18 23  1  0  0  0  0
 18 25  1  0  0  0  0
 19 18  2  0  0  0  0
 20 21  2  0  0  0  0
 20 19  1  0  0  0  0
 21 22  1  0  0  0  0
 22 23  2  0  0  0  0
 23 26  1  0  0  0  0
 24 25  1  0  0  0  0
 26 27  1  0  0  0  0
M  END
>  <MODEL>
4

>  <REMARK>
 VINA RESULT:    -7.439      3.752      5.499
 INTER + INTRA:         -10.484
 INTER:                  -9.755
 INTRA:                  -0.729
 UNBOUND:                -0.653
  Name = CHEMBL3286487
  7 active torsions:
  status: ('A' for Active; 'I' for Inactive)
    1  A    between atoms: C_1  and  O_2
    2  A    between atoms: O_2  and  C_3
    3  A    between atoms: C_5  and  C_6
    4  A    between atoms: C_6  and  N_7
    5  A    between atoms: C_8  and  C_10
    6  A    between atoms: C_11  and  C_12
    7  A    between atoms: C_23  and  O_24
                            x       y       z     vdW  Elec       q    Type
                         _______ _______ _______ _____ _____    ______ ____

>  <TORSDO>
F 6

>  <SCORE>
-7.439

>  <RMSD_LB>
3.752

>  <RMSD_UB>
5.499

$$$$
CHEMBL3286487
 OpenBabel10162523393D

 27 29  0  0  0  0  0  0  0  0999 V2000
  137.8330  137.6820  153.8950 N   0  0  0  0  0  0  0  0  0  0  0  0
  137.3280  136.7530  154.7730 C   0  0  0  0  0  0  0  0  0  0  0  0
  137.7840  136.5270  155.8860 O   0  0  0  0  0  0  0  0  0  0  0  0
  137.4100  137.7790  153.0110 H   0  0  0  0  0  0  0  0  0  0  0  0
  136.1520  136.0350  154.2250 C   0  0  0  0  0  3  0  0  0  0  0  0
  135.9950  135.8550  152.9010 C   0  0  0  0  0  3  0  0  0  0  0  0
  134.8880  135.1840  152.2900 C   0  0  0  0  0  0  0  0  0  0  0  0
  133.6650  134.9500  152.8840 C   0  0  0  0  0  3  0  0  0  0  0  0
  132.8660  134.3070  151.9810 N   0  0  0  0  0  0  0  0  0  0  0  0
  133.5440  134.1010  150.8050 C   0  0  0  0  0  0  0  0  0  0  0  0
  133.1160  133.4820  149.6240 C   0  0  0  0  0  3  0  0  0  0  0  0
  134.0260  133.3960  148.5700 C   0  0  0  0  0  3  0  0  0  0  0  0
  135.3120  133.9160  148.6940 C   0  0  0  0  0  3  0  0  0  0  0  0
  135.7220  134.5400  149.8790 C   0  0  0  0  0  3  0  0  0  0  0  0
  134.8240  134.6360  150.9660 C   0  0  0  0  0  0  0  0  0  0  0  0
  131.9350  134.0320  152.1500 H   0  0  0  0  0  0  0  0  0  0  0  0
  138.9640  138.5220  154.2230 C   0  0  0  0  0  2  0  0  0  0  0  0
  141.2750  137.2980  151.4300 C   0  0  0  0  0  0  0  0  0  0  0  0
  140.1320  137.6950  152.1330 C   0  0  0  0  0  3  0  0  0  0  0  0
  140.2140  138.1510  153.4630 C   0  0  0  0  0  0  0  0  0  0  0  0
  141.4700  138.1920  154.0850 C   0  0  0  0  0  3  0  0  0  0  0  0
  142.6170  137.7910  153.3970 C   0  0  0  0  0  3  0  0  0  0  0  0
  142.5140  137.3490  152.0790 C   0  0  0  0  0  0  0  0  0  0  0  0
  140.4580  137.5260  149.2020 C   0  0  0  0  0  1  0  0  0  0  0  0
  141.2830  136.8440  150.1370 O   0  0  0  0  0  0  0  0  0  0  0  0
  143.6390  136.9500  151.4070 O   0  0  0  0  0  0  0  0  0  0  0  0
  143.6320  136.1540  150.9130 H   0  0  0  0  0  0  0  0  0  0  0  0
  1 17  1  0  0  0  0
  1  2  1  0  0  0  0
  2  3  2  0  0  0  0
  4  1  1  0  0  0  0
  5  2  1  0  0  0  0
  6  5  2  0  0  0  0
  7  8  2  0  0  0  0
  7  6  1  0  0  0  0
  9 16  1  0  0  0  0
  9  8  1  0  0  0  0
 10 15  1  0  0  0  0
 10  9  1  0  0  0  0
 11 10  2  0  0  0  0
 12 13  2  0  0  0  0
 12 11  1  0  0  0  0
 13 14  1  0  0  0  0
 14 15  2  0  0  0  0
 15  7  1  0  0  0  0
 18 23  2  0  0  0  0
 18 19  1  0  0  0  0
 19 20  2  0  0  0  0
 20 21  1  0  0  0  0
 20 17  1  0  0  0  0
 22 21  2  0  0  0  0
 23 22  1  0  0  0  0
 24 25  1  0  0  0  0
 25 18  1  0  0  0  0
 26 23  1  0  0  0  0
 27 26  1  0  0  0  0
M  END
>  <MODEL>
5

>  <REMARK>
 VINA RESULT:    -7.435      3.341      8.395
 INTER + INTRA:         -10.478
 INTER:                  -9.783
 INTRA:                  -0.695
 UNBOUND:                -0.653
  Name = CHEMBL3286487
  7 active torsions:
  status: ('A' for Active; 'I' for Inactive)
    1  A    between atoms: C_1  and  O_2
    2  A    between atoms: O_2  and  C_3
    3  A    between atoms: C_5  and  C_6
    4  A    between atoms: C_6  and  N_7
    5  A    between atoms: C_8  and  C_10
    6  A    between atoms: C_11  and  C_12
    7  A    between atoms: C_23  and  O_24
                            x       y       z     vdW  Elec       q    Type
                         _______ _______ _______ _____ _____    ______ ____

>  <TORSDO>
F 6

>  <SCORE>
-7.435

>  <RMSD_LB>
3.341

>  <RMSD_UB>
8.395

$$$$
CHEMBL3286487
 OpenBabel10162523393D

 27 29  0  0  0  0  0  0  0  0999 V2000
  141.8240  138.6090  153.3510 N   0  0  0  0  0  0  0  0  0  0  0  0
  141.9290  139.1130  154.6260 C   0  0  0  0  0  0  0  0  0  0  0  0
  140.9940  139.2320  155.4060 O   0  0  0  0  0  0  0  0  0  0  0  0
  142.6310  138.5710  152.7890 H   0  0  0  0  0  0  0  0  0  0  0  0
  143.3170  139.5090  154.9670 C   0  0  0  0  0  3  0  0  0  0  0  0
  144.3590  139.1390  154.2020 C   0  0  0  0  0  3  0  0  0  0  0  0
  145.7280  139.4700  154.4650 C   0  0  0  0  0  0  0  0  0  0  0  0
  146.5100  138.9140  155.4560 C   0  0  0  0  0  3  0  0  0  0  0  0
  147.7580  139.4650  155.3760 N   0  0  0  0  0  0  0  0  0  0  0  0
  147.8100  140.3840  154.3580 C   0  0  0  0  0  0  0  0  0  0  0  0
  148.8780  141.1810  153.9280 C   0  0  0  0  0  3  0  0  0  0  0  0
  148.6490  142.0500  152.8600 C   0  0  0  0  0  3  0  0  0  0  0  0
  147.4020  142.1130  152.2450 C   0  0  0  0  0  3  0  0  0  0  0  0
  146.3460  141.3020  152.6820 C   0  0  0  0  0  3  0  0  0  0  0  0
  146.5450  140.4170  153.7640 C   0  0  0  0  0  0  0  0  0  0  0  0
  148.5130  139.2340  155.9650 H   0  0  0  0  0  0  0  0  0  0  0  0
  140.5710  138.1330  152.8080 C   0  0  0  0  0  2  0  0  0  0  0  0
  139.7160  136.5440  149.4340 C   0  0  0  0  0  0  0  0  0  0  0  0
  139.5960  137.1960  150.6660 C   0  0  0  0  0  3  0  0  0  0  0  0
  140.7260  137.4790  151.4560 C   0  0  0  0  0  0  0  0  0  0  0  0
  141.9890  137.0840  150.9920 C   0  0  0  0  0  3  0  0  0  0  0  0
  142.1220  136.4260  149.7680 C   0  0  0  0  0  3  0  0  0  0  0  0
  140.9900  136.1610  148.9980 C   0  0  0  0  0  0  0  0  0  0  0  0
  138.0120  137.3100  147.9530 C   0  0  0  0  0  1  0  0  0  0  0  0
  138.6700  136.2320  148.6040 O   0  0  0  0  0  0  0  0  0  0  0  0
  141.1210  135.5080  147.8010 O   0  0  0  0  0  0  0  0  0  0  0  0
  141.3360  134.5960  147.7850 H   0  0  0  0  0  0  0  0  0  0  0  0
  1  2  1  0  0  0  0
  2  5  1  0  0  0  0
  2  3  2  0  0  0  0
  4  1  1  0  0  0  0
  6  7  1  0  0  0  0
  6  5  2  0  0  0  0
  7  8  2  0  0  0  0
  9  8  1  0  0  0  0
  9 16  1  0  0  0  0
 10  9  1  0  0  0  0
 11 10  1  0  0  0  0
 12 11  2  0  0  0  0
 13 14  2  0  0  0  0
 13 12  1  0  0  0  0
 14 15  1  0  0  0  0
 15 10  2  0  0  0  0
 15  7  1  0  0  0  0
 17  1  1  0  0  0  0
 18 19  1  0  0  0  0
 19 20  2  0  0  0  0
 20 17  1  0  0  0  0
 21 20  1  0  0  0  0
 22 21  2  0  0  0  0
 23 18  2  0  0  0  0
 23 22  1  0  0  0  0
 24 25  1  0  0  0  0
 25 18  1  0  0  0  0
 26 23  1  0  0  0  0
 27 26  1  0  0  0  0
M  END
>  <MODEL>
6

>  <REMARK>
 VINA RESULT:    -7.374      4.617      6.455
 INTER + INTRA:         -10.397
 INTER:                  -9.780
 INTRA:                  -0.618
 UNBOUND:                -0.653
  Name = CHEMBL3286487
  7 active torsions:
  status: ('A' for Active; 'I' for Inactive)
    1  A    between atoms: C_1  and  O_2
    2  A    between atoms: O_2  and  C_3
    3  A    between atoms: C_5  and  C_6
    4  A    between atoms: C_6  and  N_7
    5  A    between atoms: C_8  and  C_10
    6  A    between atoms: C_11  and  C_12
    7  A    between atoms: C_23  and  O_24
                            x       y       z     vdW  Elec       q    Type
                         _______ _______ _______ _____ _____    ______ ____

>  <TORSDO>
F 6

>  <SCORE>
-7.374

>  <RMSD_LB>
4.617

>  <RMSD_UB>
6.455

$$$$
CHEMBL3286487
 OpenBabel10162523393D

 27 29  0  0  0  0  0  0  0  0999 V2000
  139.0460  137.0040  150.7960 N   0  0  0  0  0  0  0  0  0  0  0  0
  137.9970  137.7520  150.3150 C   0  0  0  0  0  0  0  0  0  0  0  0
  138.0760  138.9260  149.9800 O   0  0  0  0  0  0  0  0  0  0  0  0
  138.8810  136.0700  151.0580 H   0  0  0  0  0  0  0  0  0  0  0  0
  136.7340  136.9790  150.2440 C   0  0  0  0  0  3  0  0  0  0  0  0
  136.4500  136.0170  151.1400 C   0  0  0  0  0  3  0  0  0  0  0  0
  135.2610  135.2190  151.1370 C   0  0  0  0  0  0  0  0  0  0  0  0
  134.6260  134.7230  152.2570 C   0  0  0  0  0  3  0  0  0  0  0  0
  133.5190  134.0320  151.8520 N   0  0  0  0  0  0  0  0  0  0  0  0
  133.4180  134.0530  150.4830 C   0  0  0  0  0  0  0  0  0  0  0  0
  132.4520  133.4750  149.6490 C   0  0  0  0  0  3  0  0  0  0  0  0
  132.5990  133.6440  148.2720 C   0  0  0  0  0  3  0  0  0  0  0  0
  133.6680  134.3680  147.7520 C   0  0  0  0  0  3  0  0  0  0  0  0
  134.6220  134.9480  148.6000 C   0  0  0  0  0  3  0  0  0  0  0  0
  134.5030  134.7880  149.9980 C   0  0  0  0  0  0  0  0  0  0  0  0
  132.8830  133.5850  152.4560 H   0  0  0  0  0  0  0  0  0  0  0  0
  140.3830  137.5410  150.9270 C   0  0  0  0  0  2  0  0  0  0  0  0
  140.1240  138.4550  154.6340 C   0  0  0  0  0  0  0  0  0  0  0  0
  139.7820  138.1440  153.3130 C   0  0  0  0  0  3  0  0  0  0  0  0
  140.7670  137.8190  152.3610 C   0  0  0  0  0  0  0  0  0  0  0  0
  142.1120  137.8220  152.7540 C   0  0  0  0  0  3  0  0  0  0  0  0
  142.4670  138.1380  154.0670 C   0  0  0  0  0  3  0  0  0  0  0  0
  141.4770  138.4510  154.9960 C   0  0  0  0  0  0  0  0  0  0  0  0
  138.3150  137.7730  156.0280 C   0  0  0  0  0  1  0  0  0  0  0  0
  139.2310  138.7800  155.6210 O   0  0  0  0  0  0  0  0  0  0  0  0
  141.8270  138.7680  156.2820 O   0  0  0  0  0  0  0  0  0  0  0  0
  141.3130  138.4540  156.9990 H   0  0  0  0  0  0  0  0  0  0  0  0
  1 17  1  0  0  0  0
  1  4  1  0  0  0  0
  2  1  1  0  0  0  0
  3  2  2  0  0  0  0
  5  2  1  0  0  0  0
  5  6  2  0  0  0  0
  7  6  1  0  0  0  0
  7  8  2  0  0  0  0
  9  8  1  0  0  0  0
  9 16  1  0  0  0  0
 10  9  1  0  0  0  0
 11 10  2  0  0  0  0
 12 11  1  0  0  0  0
 13 12  2  0  0  0  0
 13 14  1  0  0  0  0
 14 15  2  0  0  0  0
 15 10  1  0  0  0  0
 15  7  1  0  0  0  0
 17 20  1  0  0  0  0
 18 23  1  0  0  0  0
 18 25  1  0  0  0  0
 19 18  2  0  0  0  0
 20 21  2  0  0  0  0
 20 19  1  0  0  0  0
 21 22  1  0  0  0  0
 22 23  2  0  0  0  0
 23 26  1  0  0  0  0
 25 24  1  0  0  0  0
 26 27  1  0  0  0  0
M  END
>  <MODEL>
7

>  <REMARK>
 VINA RESULT:    -7.326      3.587      8.301
 INTER + INTRA:         -10.334
 INTER:                  -9.826
 INTRA:                  -0.509
 UNBOUND:                -0.653
  Name = CHEMBL3286487
  7 active torsions:
  status: ('A' for Active; 'I' for Inactive)
    1  A    between atoms: C_1  and  O_2
    2  A    between atoms: O_2  and  C_3
    3  A    between atoms: C_5  and  C_6
    4  A    between atoms: C_6  and  N_7
    5  A    between atoms: C_8  and  C_10
    6  A    between atoms: C_11  and  C_12
    7  A    between atoms: C_23  and  O_24
                            x       y       z     vdW  Elec       q    Type
                         _______ _______ _______ _____ _____    ______ ____

>  <TORSDO>
F 6

>  <SCORE>
-7.326

>  <RMSD_LB>
3.587

>  <RMSD_UB>
8.301

$$$$
CHEMBL3286487
 OpenBabel10162523393D

 27 29  0  0  0  0  0  0  0  0999 V2000
  138.3030  136.3350  150.0780 N   0  0  0  0  0  0  0  0  0  0  0  0
  138.8200  137.6020  150.2140 C   0  0  0  0  0  0  0  0  0  0  0  0
  138.2530  138.6260  149.8590 O   0  0  0  0  0  0  0  0  0  0  0  0
  138.8440  135.5680  150.3760 H   0  0  0  0  0  0  0  0  0  0  0  0
  140.1620  137.6030  150.8440 C   0  0  0  0  0  3  0  0  0  0  0  0
  140.3100  137.7180  152.1750 C   0  0  0  0  0  3  0  0  0  0  0  0
  141.5670  137.7380  152.8620 C   0  0  0  0  0  0  0  0  0  0  0  0
  141.7550  138.1030  154.1790 C   0  0  0  0  0  3  0  0  0  0  0  0
  143.0820  137.9710  154.4750 N   0  0  0  0  0  0  0  0  0  0  0  0
  143.7770  137.5380  153.3730 C   0  0  0  0  0  0  0  0  0  0  0  0
  145.1450  137.2750  153.2250 C   0  0  0  0  0  3  0  0  0  0  0  0
  145.5920  136.8500  151.9740 C   0  0  0  0  0  3  0  0  0  0  0  0
  144.7020  136.6890  150.9150 C   0  0  0  0  0  3  0  0  0  0  0  0
  143.3350  136.9470  151.0820 C   0  0  0  0  0  3  0  0  0  0  0  0
  142.8540  137.3850  152.3360 C   0  0  0  0  0  0  0  0  0  0  0  0
  143.4840  138.1590  155.3550 H   0  0  0  0  0  0  0  0  0  0  0  0
  136.9940  136.0900  149.5150 C   0  0  0  0  0  2  0  0  0  0  0  0
  135.0630  135.8490  152.8090 C   0  0  0  0  0  0  0  0  0  0  0  0
  135.9640  136.2640  151.8220 C   0  0  0  0  0  3  0  0  0  0  0  0
  135.9790  135.6650  150.5480 C   0  0  0  0  0  0  0  0  0  0  0  0
  135.0770  134.6250  150.2810 C   0  0  0  0  0  3  0  0  0  0  0  0
  134.1790  134.1960  151.2600 C   0  0  0  0  0  3  0  0  0  0  0  0
  134.1760  134.8070  152.5130 C   0  0  0  0  0  0  0  0  0  0  0  0
  136.0460  136.0910  154.9670 C   0  0  0  0  0  1  0  0  0  0  0  0
  134.9810  136.3770  154.0710 O   0  0  0  0  0  0  0  0  0  0  0  0
  133.2990  134.3790  153.4750 O   0  0  0  0  0  0  0  0  0  0  0  0
  132.9680  133.5030  153.4520 H   0  0  0  0  0  0  0  0  0  0  0  0
  1  2  1  0  0  0  0
  1  4  1  0  0  0  0
  2  5  1  0  0  0  0
  3  2  2  0  0  0  0
  5  6  2  0  0  0  0
  6  7  1  0  0  0  0
  7  8  2  0  0  0  0
  8  9  1  0  0  0  0
  9 16  1  0  0  0  0
 10  9  1  0  0  0  0
 11 10  1  0  0  0  0
 12 11  2  0  0  0  0
 13 14  2  0  0  0  0
 13 12  1  0  0  0  0
 14 15  1  0  0  0  0
 15  7  1  0  0  0  0
 15 10  2  0  0  0  0
 17  1  1  0  0  0  0
 17 20  1  0  0  0  0
 18 25  1  0  0  0  0
 19 18  2  0  0  0  0
 20 19  1  0  0  0  0
 21 20  2  0  0  0  0
 21 22  1  0  0  0  0
 22 23  2  0  0  0  0
 23 18  1  0  0  0  0
 23 26  1  0  0  0  0
 25 24  1  0  0  0  0
 27 26  1  0  0  0  0
M  END
>  <MODEL>
8

>  <REMARK>
 VINA RESULT:    -7.087      2.440      3.388
 INTER + INTRA:         -10.019
 INTER:                  -9.622
 INTRA:                  -0.397
 UNBOUND:                -0.653
  Name = CHEMBL3286487
  7 active torsions:
  status: ('A' for Active; 'I' for Inactive)
    1  A    between atoms: C_1  and  O_2
    2  A    between atoms: O_2  and  C_3
    3  A    between atoms: C_5  and  C_6
    4  A    between atoms: C_6  and  N_7
    5  A    between atoms: C_8  and  C_10
    6  A    between atoms: C_11  and  C_12
    7  A    between atoms: C_23  and  O_24
                            x       y       z     vdW  Elec       q    Type
                         _______ _______ _______ _____ _____    ______ ____

>  <TORSDO>
F 6

>  <SCORE>
-7.087

>  <RMSD_LB>
2.440

>  <RMSD_UB>
3.388

$$$$
CHEMBL3286487
 OpenBabel10162523393D

 27 29  0  0  0  0  0  0  0  0999 V2000
  139.8040  137.0060  150.0390 N   0  0  0  0  0  0  0  0  0  0  0  0
  139.2290  137.7910  149.0680 C   0  0  0  0  0  0  0  0  0  0  0  0
  139.7870  138.7270  148.5090 O   0  0  0  0  0  0  0  0  0  0  0  0
  139.2690  136.2870  150.4450 H   0  0  0  0  0  0  0  0  0  0  0  0
  137.8380  137.3850  148.7590 C   0  0  0  0  0  3  0  0  0  0  0  0
  137.4230  136.1170  148.9340 C   0  0  0  0  0  3  0  0  0  0  0  0
  136.1020  135.6390  148.6520 C   0  0  0  0  0  0  0  0  0  0  0  0
  135.4240  135.8140  147.4640 C   0  0  0  0  0  3  0  0  0  0  0  0
  134.2080  135.2000  147.5710 N   0  0  0  0  0  0  0  0  0  0  0  0
  134.0670  134.6340  148.8140 C   0  0  0  0  0  0  0  0  0  0  0  0
  132.9910  133.9160  149.3520 C   0  0  0  0  0  3  0  0  0  0  0  0
  133.1090  133.4560  150.6640 C   0  0  0  0  0  3  0  0  0  0  0  0
  134.2630  133.7000  151.4040 C   0  0  0  0  0  3  0  0  0  0  0  0
  135.3340  134.4120  150.8480 C   0  0  0  0  0  3  0  0  0  0  0  0
  135.2410  134.8950  149.5240 C   0  0  0  0  0  0  0  0  0  0  0  0
  133.5300  135.1670  146.8580 H   0  0  0  0  0  0  0  0  0  0  0  0
  141.1670  137.1990  150.4840 C   0  0  0  0  0  2  0  0  0  0  0  0
  140.2500  138.6500  153.9040 C   0  0  0  0  0  0  0  0  0  0  0  0
  140.1650  138.2180  152.5760 C   0  0  0  0  0  3  0  0  0  0  0  0
  141.2600  137.6090  151.9340 C   0  0  0  0  0  0  0  0  0  0  0  0
  142.4560  137.4480  152.6480 C   0  0  0  0  0  3  0  0  0  0  0  0
  142.5570  137.8820  153.9720 C   0  0  0  0  0  3  0  0  0  0  0  0
  141.4590  138.4780  154.5900 C   0  0  0  0  0  0  0  0  0  0  0  0
  138.1290  138.4380  154.9690 C   0  0  0  0  0  1  0  0  0  0  0  0
  139.2350  139.2510  154.6020 O   0  0  0  0  0  0  0  0  0  0  0  0
  141.5610  138.9100  155.8860 O   0  0  0  0  0  0  0  0  0  0  0  0
  142.0880  139.6570  156.0910 H   0  0  0  0  0  0  0  0  0  0  0  0
  1  4  1  0  0  0  0
  1 17  1  0  0  0  0
  2  1  1  0  0  0  0
  3  2  2  0  0  0  0
  5  6  2  0  0  0  0
  5  2  1  0  0  0  0
  7  6  1  0  0  0  0
  7 15  1  0  0  0  0
  8  9  1  0  0  0  0
  8  7  2  0  0  0  0
  9 10  1  0  0  0  0
 10 11  2  0  0  0  0
 10 15  1  0  0  0  0
 11 12  1  0  0  0  0
 12 13  2  0  0  0  0
 14 13  1  0  0  0  0
 15 14  2  0  0  0  0
 16  9  1  0  0  0  0
 17 20  1  0  0  0  0
 18 23  1  0  0  0  0
 18 25  1  0  0  0  0
 19 18  2  0  0  0  0
 20 19  1  0  0  0  0
 20 21  2  0  0  0  0
 21 22  1  0  0  0  0
 22 23  2  0  0  0  0
 23 26  1  0  0  0  0
 25 24  1  0  0  0  0
 26 27  1  0  0  0  0
M  END
>  <MODEL>
9

>  <REMARK>
 VINA RESULT:    -7.019      3.841      8.103
 INTER + INTRA:          -9.928
 INTER:                  -9.275
 INTRA:                  -0.653
 UNBOUND:                -0.653
  Name = CHEMBL3286487
  7 active torsions:
  status: ('A' for Active; 'I' for Inactive)
    1  A    between atoms: C_1  and  O_2
    2  A    between atoms: O_2  and  C_3
    3  A    between atoms: C_5  and  C_6
    4  A    between atoms: C_6  and  N_7
    5  A    between atoms: C_8  and  C_10
    6  A    between atoms: C_11  and  C_12
    7  A    between atoms: C_23  and  O_24
                            x       y       z     vdW  Elec       q    Type
                         _______ _______ _______ _____ _____    ______ ____

>  <TORSDO>
F 6

>  <SCORE>
-7.019

>  <RMSD_LB>
3.841

>  <RMSD_UB>
8.103

$$$$
