CHEMBL79119
 OpenBabel10172500183D

 25 26  0  0  0  0  0  0  0  0999 V2000
  142.3270  138.5500  153.9270 N   0  0  0  0  0  0  0  0  0  0  0  0
  141.7860  138.9340  155.1300 C   0  0  0  0  0  0  0  0  0  0  0  0
  142.1960  139.8670  155.8080 O   0  0  0  0  0  0  0  0  0  0  0  0
  141.9500  137.7660  153.4660 H   0  0  0  0  0  0  0  0  0  0  0  0
  140.6350  138.0900  155.5440 C   0  0  0  0  0  3  0  0  0  0  0  0
  139.4830  138.1270  154.8530 C   0  0  0  0  0  3  0  0  0  0  0  0
  138.2800  137.3430  155.1870 C   0  0  0  0  0  0  0  0  0  0  0  0
  137.3170  137.0010  154.2300 C   0  0  0  0  0  3  0  0  0  0  0  0
  136.2070  136.2180  154.5740 C   0  0  0  0  0  3  0  0  0  0  0  0
  136.0530  135.7530  155.8820 C   0  0  0  0  0  0  0  0  0  0  0  0
  137.0160  136.0760  156.8430 C   0  0  0  0  0  3  0  0  0  0  0  0
  138.1220  136.8620  156.4960 C   0  0  0  0  0  3  0  0  0  0  0  0
  134.9230  134.9390  156.2310 C   0  0  0  0  0  0  0  0  0  0  0  0
  134.0080  134.2850  156.5130 N   0  0  0  0  0  0  0  0  0  0  0  0
  143.4320  139.2570  153.3130 C   0  0  0  0  0  2  0  0  0  0  0  0
  147.0690  139.2090  154.5080 C   0  0  0  0  0  0  0  0  0  0  0  0
  145.7960  139.6570  154.1370 C   0  0  0  0  0  3  0  0  0  0  0  0
  144.7840  138.7530  153.7630 C   0  0  0  0  0  0  0  0  0  0  0  0
  145.0750  137.3820  153.7540 C   0  0  0  0  0  3  0  0  0  0  0  0
  146.3450  136.9210  154.1130 C   0  0  0  0  0  3  0  0  0  0  0  0
  147.3300  137.8330  154.4890 C   0  0  0  0  0  0  0  0  0  0  0  0
  148.6890  140.8400  153.8820 C   0  0  0  0  0  1  0  0  0  0  0  0
  148.1080  140.0200  154.8860 O   0  0  0  0  0  0  0  0  0  0  0  0
  148.5760  137.3830  154.8370 O   0  0  0  0  0  0  0  0  0  0  0  0
  148.7560  137.1420  155.7250 H   0  0  0  0  0  0  0  0  0  0  0  0
  1  2  1  0  0  0  0
  2  5  1  0  0  0  0
  2  3  2  0  0  0  0
  4  1  1  0  0  0  0
  6  7  1  0  0  0  0
  6  5  2  0  0  0  0
  7 12  1  0  0  0  0
  8  9  1  0  0  0  0
  8  7  2  0  0  0  0
  9 10  2  0  0  0  0
 10 13  1  0  0  0  0
 10 11  1  0  0  0  0
 12 11  2  0  0  0  0
 13 14  3  0  0  0  0
 15 18  1  0  0  0  0
 15  1  1  0  0  0  0
 16 23  1  0  0  0  0
 17 16  2  0  0  0  0
 18 17  1  0  0  0  0
 19 18  2  0  0  0  0
 19 20  1  0  0  0  0
 20 21  2  0  0  0  0
 21 16  1  0  0  0  0
 21 24  1  0  0  0  0
 22 23  1  0  0  0  0
 24 25  1  0  0  0  0
M  END
>  <MODEL>
1

>  <REMARK>
 VINA RESULT:    -7.215      0.000      0.000
 INTER + INTRA:         -10.599
 INTER:                 -10.033
 INTRA:                  -0.566
 UNBOUND:                -0.643
  Name = CHEMBL79119
  8 active torsions:
  status: ('A' for Active; 'I' for Inactive)
    1  A    between atoms: C_1  and  O_2
    2  A    between atoms: O_2  and  C_3
    3  A    between atoms: C_5  and  C_6
    4  A    between atoms: C_6  and  N_7
    5  A    between atoms: C_8  and  C_10
    6  A    between atoms: C_11  and  C_12
    7  A    between atoms: C_15  and  C_16
    8  A    between atoms: C_22  and  O_23
                            x       y       z     vdW  Elec       q    Type
                         _______ _______ _______ _____ _____    ______ ____

>  <TORSDO>
F 7

>  <SCORE>
-7.215

>  <RMSD_LB>
0.000

>  <RMSD_UB>
0.000

$$$$
CHEMBL79119
 OpenBabel10172500183D

 25 26  0  0  0  0  0  0  0  0999 V2000
  134.2090  133.0660  149.3100 N   0  0  0  0  0  0  0  0  0  0  0  0
  133.2960  133.3720  148.3310 C   0  0  0  0  0  0  0  0  0  0  0  0
  132.1360  133.7020  148.5430 O   0  0  0  0  0  0  0  0  0  0  0  0
  135.1120  132.7810  149.0440 H   0  0  0  0  0  0  0  0  0  0  0  0
  133.8560  133.2580  146.9580 C   0  0  0  0  0  3  0  0  0  0  0  0
  135.1800  133.1160  146.7770 C   0  0  0  0  0  3  0  0  0  0  0  0
  135.8380  133.0090  145.4620 C   0  0  0  0  0  0  0  0  0  0  0  0
  135.9460  134.0970  144.5850 C   0  0  0  0  0  3  0  0  0  0  0  0
  136.6150  133.9700  143.3620 C   0  0  0  0  0  3  0  0  0  0  0  0
  137.1990  132.7540  143.0020 C   0  0  0  0  0  0  0  0  0  0  0  0
  137.1100  131.6650  143.8740 C   0  0  0  0  0  3  0  0  0  0  0  0
  136.4370  131.7950  145.0960 C   0  0  0  0  0  3  0  0  0  0  0  0
  137.8970  132.6290  141.7530 C   0  0  0  0  0  0  0  0  0  0  0  0
  138.4570  132.5250  140.7430 N   0  0  0  0  0  0  0  0  0  0  0  0
  133.8890  133.1480  150.7200 C   0  0  0  0  0  2  0  0  0  0  0  0
  135.5360  135.0940  153.5770 C   0  0  0  0  0  0  0  0  0  0  0  0
  134.7970  134.1390  152.8710 C   0  0  0  0  0  3  0  0  0  0  0  0
  134.7350  134.1550  151.4650 C   0  0  0  0  0  0  0  0  0  0  0  0
  135.4210  135.1640  150.7730 C   0  0  0  0  0  3  0  0  0  0  0  0
  136.1560  136.1300  151.4660 C   0  0  0  0  0  3  0  0  0  0  0  0
  136.2110  136.0890  152.8580 C   0  0  0  0  0  0  0  0  0  0  0  0
  134.5350  134.7070  155.7040 C   0  0  0  0  0  1  0  0  0  0  0  0
  135.6500  135.1470  154.9420 O   0  0  0  0  0  0  0  0  0  0  0  0
  136.9270  137.0380  153.5380 O   0  0  0  0  0  0  0  0  0  0  0  0
  137.8600  136.9690  153.5960 H   0  0  0  0  0  0  0  0  0  0  0  0
  1 15  1  0  0  0  0
  2  3  2  0  0  0  0
  2  1  1  0  0  0  0
  4  1  1  0  0  0  0
  5  2  1  0  0  0  0
  6  5  2  0  0  0  0
  7  6  1  0  0  0  0
  8  7  2  0  0  0  0
  9  8  1  0  0  0  0
 10  9  2  0  0  0  0
 10 11  1  0  0  0  0
 11 12  2  0  0  0  0
 12  7  1  0  0  0  0
 13 10  1  0  0  0  0
 14 13  3  0  0  0  0
 15 18  1  0  0  0  0
 16 23  1  0  0  0  0
 17 16  1  0  0  0  0
 18 17  2  0  0  0  0
 19 18  1  0  0  0  0
 19 20  2  0  0  0  0
 20 21  1  0  0  0  0
 21 24  1  0  0  0  0
 21 16  2  0  0  0  0
 23 22  1  0  0  0  0
 24 25  1  0  0  0  0
M  END
>  <MODEL>
2

>  <REMARK>
 VINA RESULT:    -7.149      8.729     12.430
 INTER + INTRA:         -10.508
 INTER:                  -9.908
 INTRA:                  -0.600
 UNBOUND:                -0.643
  Name = CHEMBL79119
  8 active torsions:
  status: ('A' for Active; 'I' for Inactive)
    1  A    between atoms: C_1  and  O_2
    2  A    between atoms: O_2  and  C_3
    3  A    between atoms: C_5  and  C_6
    4  A    between atoms: C_6  and  N_7
    5  A    between atoms: C_8  and  C_10
    6  A    between atoms: C_11  and  C_12
    7  A    between atoms: C_15  and  C_16
    8  A    between atoms: C_22  and  O_23
                            x       y       z     vdW  Elec       q    Type
                         _______ _______ _______ _____ _____    ______ ____

>  <TORSDO>
F 7

>  <SCORE>
-7.149

>  <RMSD_LB>
8.729

>  <RMSD_UB>
12.430

$$$$
CHEMBL79119
 OpenBabel10172500183D

 25 26  0  0  0  0  0  0  0  0999 V2000
  139.0320  137.6750  155.6100 N   0  0  0  0  0  0  0  0  0  0  0  0
  139.4470  138.5860  154.6700 C   0  0  0  0  0  0  0  0  0  0  0  0
  138.9130  139.6700  154.4720 O   0  0  0  0  0  0  0  0  0  0  0  0
  139.5040  136.8140  155.6770 H   0  0  0  0  0  0  0  0  0  0  0  0
  140.6270  138.1230  153.8930 C   0  0  0  0  0  3  0  0  0  0  0  0
  140.5060  137.8290  152.5880 C   0  0  0  0  0  3  0  0  0  0  0  0
  141.6070  137.3490  151.7330 C   0  0  0  0  0  0  0  0  0  0  0  0
  141.3980  136.8970  150.4230 C   0  0  0  0  0  3  0  0  0  0  0  0
  142.4730  136.4890  149.6230 C   0  0  0  0  0  3  0  0  0  0  0  0
  143.7780  136.5390  150.1190 C   0  0  0  0  0  0  0  0  0  0  0  0
  144.0000  137.0010  151.4200 C   0  0  0  0  0  3  0  0  0  0  0  0
  142.9220  137.4060  152.2180 C   0  0  0  0  0  3  0  0  0  0  0  0
  144.8810  136.1330  149.2950 C   0  0  0  0  0  0  0  0  0  0  0  0
  145.7700  135.8090  148.6260 N   0  0  0  0  0  0  0  0  0  0  0  0
  137.9240  137.9360  156.5050 C   0  0  0  0  0  2  0  0  0  0  0  0
  135.2590  135.4560  155.3220 C   0  0  0  0  0  0  0  0  0  0  0  0
  136.2510  136.4410  155.3230 C   0  0  0  0  0  3  0  0  0  0  0  0
  136.8920  136.8310  156.5140 C   0  0  0  0  0  0  0  0  0  0  0  0
  136.5080  136.2210  157.7170 C   0  0  0  0  0  3  0  0  0  0  0  0
  135.5110  135.2410  157.7310 C   0  0  0  0  0  3  0  0  0  0  0  0
  134.8960  134.8640  156.5380 C   0  0  0  0  0  0  0  0  0  0  0  0
  135.3690  134.4680  153.1560 C   0  0  0  0  0  1  0  0  0  0  0  0
  134.5890  135.0170  154.2090 O   0  0  0  0  0  0  0  0  0  0  0  0
  133.9170  133.9060  156.5520 O   0  0  0  0  0  0  0  0  0  0  0  0
  133.1210  134.0560  157.0260 H   0  0  0  0  0  0  0  0  0  0  0  0
  1  4  1  0  0  0  0
  1 15  1  0  0  0  0
  2  1  1  0  0  0  0
  3  2  2  0  0  0  0
  5  2  1  0  0  0  0
  6  5  2  0  0  0  0
  7 12  1  0  0  0  0
  7  6  1  0  0  0  0
  8  7  2  0  0  0  0
  9 10  2  0  0  0  0
  9  8  1  0  0  0  0
 10 11  1  0  0  0  0
 11 12  2  0  0  0  0
 13 10  1  0  0  0  0
 14 13  3  0  0  0  0
 15 18  1  0  0  0  0
 16 17  2  0  0  0  0
 16 21  1  0  0  0  0
 17 18  1  0  0  0  0
 18 19  2  0  0  0  0
 19 20  1  0  0  0  0
 21 24  1  0  0  0  0
 21 20  2  0  0  0  0
 22 23  1  0  0  0  0
 23 16  1  0  0  0  0
 24 25  1  0  0  0  0
M  END
>  <MODEL>
3

>  <REMARK>
 VINA RESULT:    -7.087      4.168      9.661
 INTER + INTRA:         -10.423
 INTER:                  -9.880
 INTRA:                  -0.544
 UNBOUND:                -0.643
  Name = CHEMBL79119
  8 active torsions:
  status: ('A' for Active; 'I' for Inactive)
    1  A    between atoms: C_1  and  O_2
    2  A    between atoms: O_2  and  C_3
    3  A    between atoms: C_5  and  C_6
    4  A    between atoms: C_6  and  N_7
    5  A    between atoms: C_8  and  C_10
    6  A    between atoms: C_11  and  C_12
    7  A    between atoms: C_15  and  C_16
    8  A    between atoms: C_22  and  O_23
                            x       y       z     vdW  Elec       q    Type
                         _______ _______ _______ _____ _____    ______ ____

>  <TORSDO>
F 7

>  <SCORE>
-7.087

>  <RMSD_LB>
4.168

>  <RMSD_UB>
9.661

$$$$
CHEMBL79119
 OpenBabel10172500183D

 25 26  0  0  0  0  0  0  0  0999 V2000
  134.6890  133.4000  148.6770 N   0  0  0  0  0  0  0  0  0  0  0  0
  133.8250  133.7270  147.6610 C   0  0  0  0  0  0  0  0  0  0  0  0
  132.6230  133.9140  147.8060 O   0  0  0  0  0  0  0  0  0  0  0  0
  135.6350  133.2380  148.4620 H   0  0  0  0  0  0  0  0  0  0  0  0
  134.4960  133.8290  146.3390 C   0  0  0  0  0  3  0  0  0  0  0  0
  135.2580  132.8200  145.8850 C   0  0  0  0  0  3  0  0  0  0  0  0
  135.9760  132.8260  144.5980 C   0  0  0  0  0  0  0  0  0  0  0  0
  136.0860  133.9760  143.8060 C   0  0  0  0  0  3  0  0  0  0  0  0
  136.8130  133.9570  142.6080 C   0  0  0  0  0  3  0  0  0  0  0  0
  137.4530  132.7880  142.1920 C   0  0  0  0  0  0  0  0  0  0  0  0
  137.3620  131.6370  142.9820 C   0  0  0  0  0  3  0  0  0  0  0  0
  136.6310  131.6590  144.1770 C   0  0  0  0  0  3  0  0  0  0  0  0
  138.2100  132.7720  140.9720 C   0  0  0  0  0  0  0  0  0  0  0  0
  138.8180  132.7550  139.9860 N   0  0  0  0  0  0  0  0  0  0  0  0
  134.2570  133.2860  150.0550 C   0  0  0  0  0  2  0  0  0  0  0  0
  136.3700  136.2320  151.2840 C   0  0  0  0  0  0  0  0  0  0  0  0
  135.7070  135.3290  150.4470 C   0  0  0  0  0  3  0  0  0  0  0  0
  134.9230  134.2850  150.9730 C   0  0  0  0  0  0  0  0  0  0  0  0
  134.8260  134.1520  152.3660 C   0  0  0  0  0  3  0  0  0  0  0  0
  135.4910  135.0420  153.2130 C   0  0  0  0  0  3  0  0  0  0  0  0
  136.2550  136.0740  152.6700 C   0  0  0  0  0  0  0  0  0  0  0  0
  138.4310  136.9540  150.3310 C   0  0  0  0  0  1  0  0  0  0  0  0
  137.1500  137.2750  150.8540 O   0  0  0  0  0  0  0  0  0  0  0  0
  136.9100  136.9440  153.5010 O   0  0  0  0  0  0  0  0  0  0  0  0
  136.5030  137.2290  154.2970 H   0  0  0  0  0  0  0  0  0  0  0  0
  1 15  1  0  0  0  0
  2  3  2  0  0  0  0
  2  1  1  0  0  0  0
  4  1  1  0  0  0  0
  5  2  1  0  0  0  0
  6  5  2  0  0  0  0
  7  6  1  0  0  0  0
  8  7  2  0  0  0  0
  9  8  1  0  0  0  0
 10  9  2  0  0  0  0
 10 11  1  0  0  0  0
 11 12  2  0  0  0  0
 12  7  1  0  0  0  0
 13 10  1  0  0  0  0
 14 13  3  0  0  0  0
 15 18  1  0  0  0  0
 16 21  1  0  0  0  0
 17 18  1  0  0  0  0
 17 16  2  0  0  0  0
 18 19  2  0  0  0  0
 19 20  1  0  0  0  0
 21 20  2  0  0  0  0
 21 24  1  0  0  0  0
 22 23  1  0  0  0  0
 23 16  1  0  0  0  0
 24 25  1  0  0  0  0
M  END
>  <MODEL>
4

>  <REMARK>
 VINA RESULT:    -6.945      9.202     12.454
 INTER + INTRA:         -10.227
 INTER:                  -9.650
 INTRA:                  -0.577
 UNBOUND:                -0.643
  Name = CHEMBL79119
  8 active torsions:
  status: ('A' for Active; 'I' for Inactive)
    1  A    between atoms: C_1  and  O_2
    2  A    between atoms: O_2  and  C_3
    3  A    between atoms: C_5  and  C_6
    4  A    between atoms: C_6  and  N_7
    5  A    between atoms: C_8  and  C_10
    6  A    between atoms: C_11  and  C_12
    7  A    between atoms: C_15  and  C_16
    8  A    between atoms: C_22  and  O_23
                            x       y       z     vdW  Elec       q    Type
                         _______ _______ _______ _____ _____    ______ ____

>  <TORSDO>
F 7

>  <SCORE>
-6.945

>  <RMSD_LB>
9.202

>  <RMSD_UB>
12.454

$$$$
CHEMBL79119
 OpenBabel10172500183D

 25 26  0  0  0  0  0  0  0  0999 V2000
  135.4060  132.9910  146.1780 N   0  0  0  0  0  0  0  0  0  0  0  0
  136.0090  132.1820  145.2470 C   0  0  0  0  0  0  0  0  0  0  0  0
  136.3010  131.0070  145.4350 O   0  0  0  0  0  0  0  0  0  0  0  0
  135.2370  133.9340  145.9490 H   0  0  0  0  0  0  0  0  0  0  0  0
  136.2870  132.8790  143.9640 C   0  0  0  0  0  3  0  0  0  0  0  0
  136.9880  132.2640  142.9960 C   0  0  0  0  0  3  0  0  0  0  0  0
  137.3290  132.8700  141.6960 C   0  0  0  0  0  0  0  0  0  0  0  0
  136.6070  133.9410  141.1540 C   0  0  0  0  0  3  0  0  0  0  0  0
  136.9860  134.5210  139.9370 C   0  0  0  0  0  3  0  0  0  0  0  0
  138.1030  134.0440  139.2480 C   0  0  0  0  0  0  0  0  0  0  0  0
  138.8410  132.9850  139.7860 C   0  0  0  0  0  3  0  0  0  0  0  0
  138.4570  132.4060  141.0030 C   0  0  0  0  0  3  0  0  0  0  0  0
  138.5000  134.6480  138.0070 C   0  0  0  0  0  0  0  0  0  0  0  0
  138.8150  135.1360  137.0040 N   0  0  0  0  0  0  0  0  0  0  0  0
  135.0100  132.5080  147.4850 C   0  0  0  0  0  2  0  0  0  0  0  0
  133.2850  135.7710  148.5020 C   0  0  0  0  0  0  0  0  0  0  0  0
  133.9690  134.8040  147.7570 C   0  0  0  0  0  3  0  0  0  0  0  0
  134.2230  133.5230  148.2820 C   0  0  0  0  0  0  0  0  0  0  0  0
  133.7900  133.2300  149.5830 C   0  0  0  0  0  3  0  0  0  0  0  0
  133.1140  134.1900  150.3410 C   0  0  0  0  0  3  0  0  0  0  0  0
  132.8650  135.4500  149.7980 C   0  0  0  0  0  0  0  0  0  0  0  0
  133.0490  137.2710  146.6650 C   0  0  0  0  0  1  0  0  0  0  0  0
  132.9950  137.0380  148.0660 O   0  0  0  0  0  0  0  0  0  0  0  0
  132.2050  136.3920  150.5420 O   0  0  0  0  0  0  0  0  0  0  0  0
  132.4160  136.5050  151.4490 H   0  0  0  0  0  0  0  0  0  0  0  0
  1 15  1  0  0  0  0
  2  3  2  0  0  0  0
  2  1  1  0  0  0  0
  4  1  1  0  0  0  0
  5  2  1  0  0  0  0
  6  5  2  0  0  0  0
  7  6  1  0  0  0  0
  8  7  1  0  0  0  0
  9  8  2  0  0  0  0
 10 11  2  0  0  0  0
 10  9  1  0  0  0  0
 11 12  1  0  0  0  0
 12  7  2  0  0  0  0
 13 10  1  0  0  0  0
 14 13  3  0  0  0  0
 15 18  1  0  0  0  0
 16 21  1  0  0  0  0
 17 18  1  0  0  0  0
 17 16  2  0  0  0  0
 18 19  2  0  0  0  0
 19 20  1  0  0  0  0
 21 20  2  0  0  0  0
 21 24  1  0  0  0  0
 22 23  1  0  0  0  0
 23 16  1  0  0  0  0
 24 25  1  0  0  0  0
M  END
>  <MODEL>
5

>  <REMARK>
 VINA RESULT:    -6.910     11.816     15.228
 INTER + INTRA:         -10.179
 INTER:                  -9.726
 INTRA:                  -0.453
 UNBOUND:                -0.643
  Name = CHEMBL79119
  8 active torsions:
  status: ('A' for Active; 'I' for Inactive)
    1  A    between atoms: C_1  and  O_2
    2  A    between atoms: O_2  and  C_3
    3  A    between atoms: C_5  and  C_6
    4  A    between atoms: C_6  and  N_7
    5  A    between atoms: C_8  and  C_10
    6  A    between atoms: C_11  and  C_12
    7  A    between atoms: C_15  and  C_16
    8  A    between atoms: C_22  and  O_23
                            x       y       z     vdW  Elec       q    Type
                         _______ _______ _______ _____ _____    ______ ____

>  <TORSDO>
F 7

>  <SCORE>
-6.910

>  <RMSD_LB>
11.816

>  <RMSD_UB>
15.228

$$$$
CHEMBL79119
 OpenBabel10172500183D

 25 26  0  0  0  0  0  0  0  0999 V2000
  138.2290  135.9040  149.6460 N   0  0  0  0  0  0  0  0  0  0  0  0
  138.8680  137.1180  149.6920 C   0  0  0  0  0  0  0  0  0  0  0  0
  138.3510  138.1860  149.3860 O   0  0  0  0  0  0  0  0  0  0  0  0
  138.7340  135.0920  149.8810 H   0  0  0  0  0  0  0  0  0  0  0  0
  140.2780  137.0160  150.1510 C   0  0  0  0  0  3  0  0  0  0  0  0
  140.6180  137.4110  151.3900 C   0  0  0  0  0  3  0  0  0  0  0  0
  141.9860  137.3640  151.9370 C   0  0  0  0  0  0  0  0  0  0  0  0
  143.0980  137.0390  151.1500 C   0  0  0  0  0  3  0  0  0  0  0  0
  144.3900  137.0470  151.6930 C   0  0  0  0  0  3  0  0  0  0  0  0
  144.5880  137.3930  153.0310 C   0  0  0  0  0  0  0  0  0  0  0  0
  143.4870  137.7340  153.8220 C   0  0  0  0  0  3  0  0  0  0  0  0
  142.1960  137.7220  153.2770 C   0  0  0  0  0  3  0  0  0  0  0  0
  145.9130  137.4150  153.5840 C   0  0  0  0  0  0  0  0  0  0  0  0
  146.9850  137.4310  154.0260 N   0  0  0  0  0  0  0  0  0  0  0  0
  136.8370  135.7740  149.2640 C   0  0  0  0  0  2  0  0  0  0  0  0
  135.2200  135.7170  152.7340 C   0  0  0  0  0  0  0  0  0  0  0  0
  136.0120  136.0860  151.6410 C   0  0  0  0  0  3  0  0  0  0  0  0
  135.9360  135.3960  150.4180 C   0  0  0  0  0  0  0  0  0  0  0  0
  135.0570  134.3090  150.3110 C   0  0  0  0  0  3  0  0  0  0  0  0
  134.2670  133.9230  151.3970 C   0  0  0  0  0  3  0  0  0  0  0  0
  134.3510  134.6270  152.5980 C   0  0  0  0  0  0  0  0  0  0  0  0
  136.3600  136.1100  154.7890 C   0  0  0  0  0  1  0  0  0  0  0  0
  135.2310  136.3360  153.9570 O   0  0  0  0  0  0  0  0  0  0  0  0
  133.5800  134.2470  153.6640 O   0  0  0  0  0  0  0  0  0  0  0  0
  132.6770  134.0270  153.5350 H   0  0  0  0  0  0  0  0  0  0  0  0
  1  2  1  0  0  0  0
  1  4  1  0  0  0  0
  2  5  1  0  0  0  0
  3  2  2  0  0  0  0
  5  6  2  0  0  0  0
  6  7  1  0  0  0  0
  7 12  1  0  0  0  0
  8  9  1  0  0  0  0
  8  7  2  0  0  0  0
  9 10  2  0  0  0  0
 10 13  1  0  0  0  0
 10 11  1  0  0  0  0
 12 11  2  0  0  0  0
 13 14  3  0  0  0  0
 15  1  1  0  0  0  0
 15 18  1  0  0  0  0
 16 23  1  0  0  0  0
 17 16  2  0  0  0  0
 18 17  1  0  0  0  0
 19 18  2  0  0  0  0
 19 20  1  0  0  0  0
 20 21  2  0  0  0  0
 21 16  1  0  0  0  0
 21 24  1  0  0  0  0
 23 22  1  0  0  0  0
 25 24  1  0  0  0  0
M  END
>  <MODEL>
6

>  <REMARK>
 VINA RESULT:    -6.657      4.669     10.031
 INTER + INTRA:          -9.830
 INTER:                  -9.251
 INTRA:                  -0.579
 UNBOUND:                -0.643
  Name = CHEMBL79119
  8 active torsions:
  status: ('A' for Active; 'I' for Inactive)
    1  A    between atoms: C_1  and  O_2
    2  A    between atoms: O_2  and  C_3
    3  A    between atoms: C_5  and  C_6
    4  A    between atoms: C_6  and  N_7
    5  A    between atoms: C_8  and  C_10
    6  A    between atoms: C_11  and  C_12
    7  A    between atoms: C_15  and  C_16
    8  A    between atoms: C_22  and  O_23
                            x       y       z     vdW  Elec       q    Type
                         _______ _______ _______ _____ _____    ______ ____

>  <TORSDO>
F 7

>  <SCORE>
-6.657

>  <RMSD_LB>
4.669

>  <RMSD_UB>
10.031

$$$$
CHEMBL79119
 OpenBabel10172500183D

 25 26  0  0  0  0  0  0  0  0999 V2000
  140.6300  138.6950  154.4730 N   0  0  0  0  0  0  0  0  0  0  0  0
  139.5400  138.2110  155.1540 C   0  0  0  0  0  0  0  0  0  0  0  0
  139.4460  138.1730  156.3740 O   0  0  0  0  0  0  0  0  0  0  0  0
  140.6300  138.6580  153.4890 H   0  0  0  0  0  0  0  0  0  0  0  0
  138.4640  137.7200  154.2530 C   0  0  0  0  0  3  0  0  0  0  0  0
  137.4820  136.9380  154.7340 C   0  0  0  0  0  3  0  0  0  0  0  0
  136.3790  136.3880  153.9260 C   0  0  0  0  0  0  0  0  0  0  0  0
  135.1730  135.9590  154.4950 C   0  0  0  0  0  3  0  0  0  0  0  0
  134.1290  135.4820  153.6920 C   0  0  0  0  0  3  0  0  0  0  0  0
  134.2730  135.4390  152.3040 C   0  0  0  0  0  0  0  0  0  0  0  0
  135.4670  135.8770  151.7230 C   0  0  0  0  0  3  0  0  0  0  0  0
  136.5100  136.3510  152.5300 C   0  0  0  0  0  3  0  0  0  0  0  0
  133.1970  134.9620  151.4800 C   0  0  0  0  0  0  0  0  0  0  0  0
  132.3330  134.5740  150.8130 N   0  0  0  0  0  0  0  0  0  0  0  0
  141.7790  139.2600  155.1510 C   0  0  0  0  0  2  0  0  0  0  0  0
  145.4550  139.4620  154.1010 C   0  0  0  0  0  0  0  0  0  0  0  0
  144.2970  139.3870  154.8820 C   0  0  0  0  0  3  0  0  0  0  0  0
  143.0230  139.2860  154.2930 C   0  0  0  0  0  0  0  0  0  0  0  0
  142.9270  139.2760  152.8940 C   0  0  0  0  0  3  0  0  0  0  0  0
  144.0750  139.3600  152.1010 C   0  0  0  0  0  3  0  0  0  0  0  0
  145.3280  139.4500  152.7060 C   0  0  0  0  0  0  0  0  0  0  0  0
  147.1130  138.6270  155.5930 C   0  0  0  0  0  1  0  0  0  0  0  0
  146.7300  139.5600  154.5930 O   0  0  0  0  0  0  0  0  0  0  0  0
  146.4530  139.5360  151.9290 O   0  0  0  0  0  0  0  0  0  0  0  0
  147.2560  139.8450  152.3000 H   0  0  0  0  0  0  0  0  0  0  0  0
  1 15  1  0  0  0  0
  1  2  1  0  0  0  0
  2  3  2  0  0  0  0
  4  1  1  0  0  0  0
  5  6  2  0  0  0  0
  5  2  1  0  0  0  0
  7  8  1  0  0  0  0
  7  6  1  0  0  0  0
  9  8  2  0  0  0  0
 10  9  1  0  0  0  0
 11 10  2  0  0  0  0
 11 12  1  0  0  0  0
 12  7  2  0  0  0  0
 13 10  1  0  0  0  0
 14 13  3  0  0  0  0
 16 23  1  0  0  0  0
 16 17  1  0  0  0  0
 18 17  2  0  0  0  0
 18 15  1  0  0  0  0
 19 18  1  0  0  0  0
 20 21  1  0  0  0  0
 20 19  2  0  0  0  0
 21 16  2  0  0  0  0
 23 22  1  0  0  0  0
 24 25  1  0  0  0  0
 24 21  1  0  0  0  0
M  END
>  <MODEL>
7

>  <REMARK>
 VINA RESULT:    -6.504      2.317      3.315
 INTER + INTRA:          -9.618
 INTER:                  -9.169
 INTRA:                  -0.448
 UNBOUND:                -0.643
  Name = CHEMBL79119
  8 active torsions:
  status: ('A' for Active; 'I' for Inactive)
    1  A    between atoms: C_1  and  O_2
    2  A    between atoms: O_2  and  C_3
    3  A    between atoms: C_5  and  C_6
    4  A    between atoms: C_6  and  N_7
    5  A    between atoms: C_8  and  C_10
    6  A    between atoms: C_11  and  C_12
    7  A    between atoms: C_15  and  C_16
    8  A    between atoms: C_22  and  O_23
                            x       y       z     vdW  Elec       q    Type
                         _______ _______ _______ _____ _____    ______ ____

>  <TORSDO>
F 7

>  <SCORE>
-6.504

>  <RMSD_LB>
2.317

>  <RMSD_UB>
3.315

$$$$
CHEMBL79119
 OpenBabel10172500183D

 25 26  0  0  0  0  0  0  0  0999 V2000
  136.7540  136.3210  150.5370 N   0  0  0  0  0  0  0  0  0  0  0  0
  137.4320  137.3260  149.8910 C   0  0  0  0  0  0  0  0  0  0  0  0
  136.8970  138.2150  149.2410 O   0  0  0  0  0  0  0  0  0  0  0  0
  137.2700  135.6290  151.0110 H   0  0  0  0  0  0  0  0  0  0  0  0
  138.9060  137.2290  150.0530 C   0  0  0  0  0  3  0  0  0  0  0  0
  139.4690  137.4080  151.2600 C   0  0  0  0  0  3  0  0  0  0  0  0
  140.9170  137.3470  151.5250 C   0  0  0  0  0  0  0  0  0  0  0  0
  141.8430  136.9460  150.5530 C   0  0  0  0  0  3  0  0  0  0  0  0
  143.2170  136.9420  150.8260 C   0  0  0  0  0  3  0  0  0  0  0  0
  143.6870  137.3520  152.0750 C   0  0  0  0  0  0  0  0  0  0  0  0
  142.7740  137.7680  153.0490 C   0  0  0  0  0  3  0  0  0  0  0  0
  141.4000  137.7680  152.7730 C   0  0  0  0  0  3  0  0  0  0  0  0
  145.0960  137.3610  152.3500 C   0  0  0  0  0  0  0  0  0  0  0  0
  146.2340  137.3710  152.5700 N   0  0  0  0  0  0  0  0  0  0  0  0
  135.3080  136.2420  150.5450 C   0  0  0  0  0  2  0  0  0  0  0  0
  135.0700  133.5170  147.8680 C   0  0  0  0  0  0  0  0  0  0  0  0
  135.5500  134.3260  148.9020 C   0  0  0  0  0  3  0  0  0  0  0  0
  134.7540  135.3410  149.4650 C   0  0  0  0  0  0  0  0  0  0  0  0
  133.4620  135.5420  148.9600 C   0  0  0  0  0  3  0  0  0  0  0  0
  132.9730  134.7460  147.9200 C   0  0  0  0  0  3  0  0  0  0  0  0
  133.7750  133.7410  147.3830 C   0  0  0  0  0  0  0  0  0  0  0  0
  136.9580  132.8710  146.5660 C   0  0  0  0  0  1  0  0  0  0  0  0
  135.7770  132.5070  147.2660 O   0  0  0  0  0  0  0  0  0  0  0  0
  133.2970  132.9630  146.3610 O   0  0  0  0  0  0  0  0  0  0  0  0
  133.7670  132.9120  145.5520 H   0  0  0  0  0  0  0  0  0  0  0  0
  1 15  1  0  0  0  0
  1  4  1  0  0  0  0
  2  5  1  0  0  0  0
  2  1  1  0  0  0  0
  3  2  2  0  0  0  0
  5  6  2  0  0  0  0
  6  7  1  0  0  0  0
  7 12  1  0  0  0  0
  8  9  1  0  0  0  0
  8  7  2  0  0  0  0
  9 10  2  0  0  0  0
 10 13  1  0  0  0  0
 10 11  1  0  0  0  0
 12 11  2  0  0  0  0
 13 14  3  0  0  0  0
 16 17  1  0  0  0  0
 17 18  2  0  0  0  0
 18 15  1  0  0  0  0
 19 18  1  0  0  0  0
 20 19  2  0  0  0  0
 21 16  2  0  0  0  0
 21 20  1  0  0  0  0
 22 23  1  0  0  0  0
 23 16  1  0  0  0  0
 24 21  1  0  0  0  0
 25 24  1  0  0  0  0
M  END
>  <MODEL>
8

>  <REMARK>
 VINA RESULT:    -6.490      6.610     11.153
 INTER + INTRA:          -9.599
 INTER:                  -9.029
 INTRA:                  -0.570
 UNBOUND:                -0.643
  Name = CHEMBL79119
  8 active torsions:
  status: ('A' for Active; 'I' for Inactive)
    1  A    between atoms: C_1  and  O_2
    2  A    between atoms: O_2  and  C_3
    3  A    between atoms: C_5  and  C_6
    4  A    between atoms: C_6  and  N_7
    5  A    between atoms: C_8  and  C_10
    6  A    between atoms: C_11  and  C_12
    7  A    between atoms: C_15  and  C_16
    8  A    between atoms: C_22  and  O_23
                            x       y       z     vdW  Elec       q    Type
                         _______ _______ _______ _____ _____    ______ ____

>  <TORSDO>
F 7

>  <SCORE>
-6.490

>  <RMSD_LB>
6.610

>  <RMSD_UB>
11.153

$$$$
CHEMBL79119
 OpenBabel10172500183D

 25 26  0  0  0  0  0  0  0  0999 V2000
  138.0280  135.4260  148.2610 N   0  0  0  0  0  0  0  0  0  0  0  0
  138.4110  136.7150  147.9810 C   0  0  0  0  0  0  0  0  0  0  0  0
  138.1510  137.3050  146.9410 O   0  0  0  0  0  0  0  0  0  0  0  0
  138.3100  135.0210  149.1130 H   0  0  0  0  0  0  0  0  0  0  0  0
  139.1920  137.3400  149.0810 C   0  0  0  0  0  3  0  0  0  0  0  0
  139.0840  136.8770  150.3370 C   0  0  0  0  0  3  0  0  0  0  0  0
  139.8020  137.4320  151.4990 C   0  0  0  0  0  0  0  0  0  0  0  0
  141.1960  137.3710  151.6200 C   0  0  0  0  0  3  0  0  0  0  0  0
  141.8490  137.9470  152.7170 C   0  0  0  0  0  3  0  0  0  0  0  0
  141.1150  138.6080  153.7040 C   0  0  0  0  0  0  0  0  0  0  0  0
  139.7240  138.6890  153.5880 C   0  0  0  0  0  3  0  0  0  0  0  0
  139.0750  138.1070  152.4900 C   0  0  0  0  0  3  0  0  0  0  0  0
  141.7860  139.2110  154.8220 C   0  0  0  0  0  0  0  0  0  0  0  0
  142.3230  139.6970  155.7260 N   0  0  0  0  0  0  0  0  0  0  0  0
  137.2250  134.6400  147.3460 C   0  0  0  0  0  2  0  0  0  0  0  0
  133.9000  134.9940  149.2090 C   0  0  0  0  0  0  0  0  0  0  0  0
  135.1580  135.2780  148.6690 C   0  0  0  0  0  3  0  0  0  0  0  0
  135.8430  134.3380  147.8770 C   0  0  0  0  0  0  0  0  0  0  0  0
  135.2460  133.0900  147.6450 C   0  0  0  0  0  3  0  0  0  0  0  0
  133.9920  132.7900  148.1860 C   0  0  0  0  0  3  0  0  0  0  0  0
  133.3280  133.7400  148.9600 C   0  0  0  0  0  0  0  0  0  0  0  0
  132.5810  136.9740  149.3410 C   0  0  0  0  0  1  0  0  0  0  0  0
  133.1660  135.8520  149.9870 O   0  0  0  0  0  0  0  0  0  0  0  0
  132.1010  133.4440  149.4940 O   0  0  0  0  0  0  0  0  0  0  0  0
  131.9440  132.6000  149.8690 H   0  0  0  0  0  0  0  0  0  0  0  0
  1  4  1  0  0  0  0
  2  1  1  0  0  0  0
  2  5  1  0  0  0  0
  3  2  2  0  0  0  0
  5  6  2  0  0  0  0
  6  7  1  0  0  0  0
  7  8  2  0  0  0  0
  7 12  1  0  0  0  0
  8  9  1  0  0  0  0
  9 10  2  0  0  0  0
 10 13  1  0  0  0  0
 11 10  1  0  0  0  0
 12 11  2  0  0  0  0
 13 14  3  0  0  0  0
 15 18  1  0  0  0  0
 15  1  1  0  0  0  0
 16 23  1  0  0  0  0
 17 16  2  0  0  0  0
 18 17  1  0  0  0  0
 19 18  2  0  0  0  0
 19 20  1  0  0  0  0
 20 21  2  0  0  0  0
 21 16  1  0  0  0  0
 21 24  1  0  0  0  0
 22 23  1  0  0  0  0
 24 25  1  0  0  0  0
M  END
>  <MODEL>
9

>  <REMARK>
 VINA RESULT:    -6.450      6.545     10.849
 INTER + INTRA:          -9.543
 INTER:                  -8.901
 INTRA:                  -0.643
 UNBOUND:                -0.643
  Name = CHEMBL79119
  8 active torsions:
  status: ('A' for Active; 'I' for Inactive)
    1  A    between atoms: C_1  and  O_2
    2  A    between atoms: O_2  and  C_3
    3  A    between atoms: C_5  and  C_6
    4  A    between atoms: C_6  and  N_7
    5  A    between atoms: C_8  and  C_10
    6  A    between atoms: C_11  and  C_12
    7  A    between atoms: C_15  and  C_16
    8  A    between atoms: C_22  and  O_23
                            x       y       z     vdW  Elec       q    Type
                         _______ _______ _______ _____ _____    ______ ____

>  <TORSDO>
F 7

>  <SCORE>
-6.450

>  <RMSD_LB>
6.545

>  <RMSD_UB>
10.849

$$$$
