CHEMBL122370
 OpenBabel10172500163D

 37 38  0  0  0  0  0  0  0  0999 V2000
  146.6750  136.0590  147.6830 C   0  0  0  0  0  2  0  0  0  0  0  0
  148.0130  136.2650  148.3940 C   0  0  0  0  0  2  0  0  0  0  0  0
  148.0030  135.8260  149.8620 C   0  0  0  0  0  2  0  0  0  0  0  0
  146.5940  135.5370  150.3790 C   0  0  0  0  0  2  0  0  0  0  0  0
  146.2790  136.4000  151.5750 C   0  0  0  0  0  0  0  0  0  0  0  0
  146.3600  135.9720  152.7230 O   0  0  0  0  0  0  0  0  0  0  0  0
  145.8580  137.6650  151.2490 N   0  0  0  0  0  0  0  0  0  0  0  0
  145.8110  137.9210  150.3000 H   0  0  0  0  0  0  0  0  0  0  0  0
  145.4820  138.6310  152.2520 C   0  0  0  0  0  2  0  0  0  0  0  0
  144.0350  138.5120  152.6560 C   0  0  0  0  0  0  0  0  0  0  0  0
  143.5900  139.0810  153.8590 C   0  0  0  0  0  3  0  0  0  0  0  0
  142.2560  138.9610  154.2700 C   0  0  0  0  0  3  0  0  0  0  0  0
  141.3420  138.2750  153.4740 C   0  0  0  0  0  0  0  0  0  0  0  0
  141.7880  137.7180  152.2700 C   0  0  0  0  0  0  0  0  0  0  0  0
  143.1120  137.8330  151.8520 C   0  0  0  0  0  3  0  0  0  0  0  0
  140.9180  137.0280  151.4670 O   0  0  0  0  0  0  0  0  0  0  0  0
  141.0810  136.9630  150.5470 H   0  0  0  0  0  0  0  0  0  0  0  0
  140.0120  138.0820  153.7530 O   0  0  0  0  0  0  0  0  0  0  0  0
  139.6380  138.1540  155.1250 C   0  0  0  0  0  1  0  0  0  0  0  0
  145.9590  137.3790  147.3890 C   0  0  0  0  0  2  0  0  0  0  0  0
  146.6910  138.5870  147.9600 C   0  0  0  0  0  2  0  0  0  0  0  0
  146.1420  139.9170  147.4410 C   0  0  0  0  0  2  0  0  0  0  0  0
  146.3620  141.9560  148.7190 N   0  0  0  0  0  0  0  0  0  0  0  0
  145.6550  140.7870  148.5780 C   0  0  0  0  0  0  0  0  0  0  0  0
  144.7300  140.4670  149.3220 O   0  0  0  0  0  0  0  0  0  0  0  0
  147.0630  142.1780  148.0650 H   0  0  0  0  0  0  0  0  0  0  0  0
  146.0950  142.8630  149.8080 C   0  0  0  0  0  2  0  0  0  0  0  0
  147.8000  141.4050  153.5100 C   0  0  0  0  0  0  0  0  0  0  0  0
  148.5650  141.4400  152.3410 C   0  0  0  0  0  3  0  0  0  0  0  0
  148.0190  141.9230  151.1470 C   0  0  0  0  0  3  0  0  0  0  0  0
  146.6940  142.3700  151.0970 C   0  0  0  0  0  0  0  0  0  0  0  0
  145.9260  142.3450  152.2700 C   0  0  0  0  0  3  0  0  0  0  0  0
  146.4760  141.8600  153.4580 C   0  0  0  0  0  0  0  0  0  0  0  0
  145.7080  141.8160  154.5940 O   0  0  0  0  0  0  0  0  0  0  0  0
  145.8440  142.4430  155.2750 H   0  0  0  0  0  0  0  0  0  0  0  0
  148.3360  139.5420  154.8910 C   0  0  0  0  0  1  0  0  0  0  0  0
  148.2480  140.9490  154.7220 O   0  0  0  0  0  0  0  0  0  0  0  0
  1  2  1  0  0  0  0
  2  3  1  0  0  0  0
  3  4  1  0  0  0  0
  4  5  1  0  0  0  0
  5  6  2  0  0  0  0
  7  5  1  0  0  0  0
  7  9  1  0  0  0  0
  8  7  1  0  0  0  0
  9 10  1  0  0  0  0
 10 11  1  0  0  0  0
 11 12  2  0  0  0  0
 13 18  1  0  0  0  0
 13 12  1  0  0  0  0
 14 13  2  0  0  0  0
 15 14  1  0  0  0  0
 15 10  2  0  0  0  0
 16 14  1  0  0  0  0
 17 16  1  0  0  0  0
 18 19  1  0  0  0  0
 20  1  1  0  0  0  0
 20 21  1  0  0  0  0
 22 21  1  0  0  0  0
 22 24  1  0  0  0  0
 23 27  1  0  0  0  0
 24 23  1  0  0  0  0
 24 25  2  0  0  0  0
 26 23  1  0  0  0  0
 27 31  1  0  0  0  0
 28 37  1  0  0  0  0
 29 28  2  0  0  0  0
 30 29  1  0  0  0  0
 31 30  2  0  0  0  0
 31 32  1  0  0  0  0
 32 33  2  0  0  0  0
 33 28  1  0  0  0  0
 33 34  1  0  0  0  0
 34 35  1  0  0  0  0
 37 36  1  0  0  0  0
M  END
>  <MODEL>
1

>  <REMARK>
 VINA RESULT:    -6.633      0.000      0.000
 INTER + INTRA:         -14.873
 INTER:                 -12.475
 INTRA:                  -2.398
 UNBOUND:                -2.423
  Name = CHEMBL122370
  18 active torsions:
  status: ('A' for Active; 'I' for Inactive)
    1  A    between atoms: C_1  and  O_2
    2  A    between atoms: O_2  and  C_3
    3  A    between atoms: C_6  and  C_7
    4  A    between atoms: C_7  and  N_8
    5  A    between atoms: C_9  and  C_11
    6  A    between atoms: C_11  and  C_12
    7  A    between atoms: C_12  and  C_13
    8  A    between atoms: C_13  and  C_14
    9  A    between atoms: C_14  and  C_15
   10  A    between atoms: C_15  and  C_16
   11  A    between atoms: C_16  and  C_17
   12  A    between atoms: C_17  and  C_18
   13  A    between atoms: N_20  and  C_21
   14  A    between atoms: C_21  and  C_22
   15  A    between atoms: C_25  and  O_26
   16  A    between atoms: O_26  and  C_27
   17  A    between atoms: C_28  and  O_29
   18  A    between atoms: C_32  and  O_33
                            x       y       z     vdW  Elec       q    Type
                         _______ _______ _______ _____ _____    ______ ____

>  <TORSDO>
F 16

>  <SCORE>
-6.633

>  <RMSD_LB>
0.000

>  <RMSD_UB>
0.000

$$$$
CHEMBL122370
 OpenBabel10172500163D

 37 38  0  0  0  0  0  0  0  0999 V2000
  146.2000  140.1070  148.2200 C   0  0  0  0  0  2  0  0  0  0  0  0
  144.7450  139.6820  148.0210 C   0  0  0  0  0  2  0  0  0  0  0  0
  144.5710  138.5390  147.0150 C   0  0  0  0  0  2  0  0  0  0  0  0
  145.5240  137.3740  147.2790 C   0  0  0  0  0  2  0  0  0  0  0  0
  145.0640  136.5690  148.4690 C   0  0  0  0  0  0  0  0  0  0  0  0
  143.9820  135.9880  148.4790 O   0  0  0  0  0  0  0  0  0  0  0  0
  145.9380  136.5960  149.5260 N   0  0  0  0  0  0  0  0  0  0  0  0
  146.7800  137.0980  149.4350 H   0  0  0  0  0  0  0  0  0  0  0  0
  145.6640  135.9110  150.7660 C   0  0  0  0  0  2  0  0  0  0  0  0
  146.3670  136.5390  151.9410 C   0  0  0  0  0  0  0  0  0  0  0  0
  145.9600  136.2370  153.2500 C   0  0  0  0  0  3  0  0  0  0  0  0
  146.5800  136.8290  154.3580 C   0  0  0  0  0  3  0  0  0  0  0  0
  147.6270  137.7260  154.1730 C   0  0  0  0  0  0  0  0  0  0  0  0
  148.0380  138.0160  152.8660 C   0  0  0  0  0  0  0  0  0  0  0  0
  147.4290  137.4320  151.7580 C   0  0  0  0  0  3  0  0  0  0  0  0
  149.0600  138.9020  152.6470 O   0  0  0  0  0  0  0  0  0  0  0  0
  149.8910  138.5930  152.3440 H   0  0  0  0  0  0  0  0  0  0  0  0
  148.3210  138.3760  155.1640 O   0  0  0  0  0  0  0  0  0  0  0  0
  147.7580  138.3190  156.4700 C   0  0  0  0  0  1  0  0  0  0  0  0
  146.3390  141.2750  149.2000 C   0  0  0  0  0  2  0  0  0  0  0  0
  147.4680  141.0710  150.2040 C   0  0  0  0  0  2  0  0  0  0  0  0
  147.5960  142.2260  151.1990 C   0  0  0  0  0  2  0  0  0  0  0  0
  146.6840  141.0380  153.0950 N   0  0  0  0  0  0  0  0  0  0  0  0
  146.5410  142.1340  152.2790 C   0  0  0  0  0  0  0  0  0  0  0  0
  145.6290  142.9480  152.4000 O   0  0  0  0  0  0  0  0  0  0  0  0
  147.4600  140.4450  152.9780 H   0  0  0  0  0  0  0  0  0  0  0  0
  145.7150  140.7420  154.1210 C   0  0  0  0  0  2  0  0  0  0  0  0
  142.5420  138.1950  152.6430 C   0  0  0  0  0  0  0  0  0  0  0  0
  143.3970  138.8520  151.7540 C   0  0  0  0  0  3  0  0  0  0  0  0
  144.4300  139.6650  152.2310 C   0  0  0  0  0  3  0  0  0  0  0  0
  144.6220  139.8450  153.6060 C   0  0  0  0  0  0  0  0  0  0  0  0
  143.7710  139.1800  154.5010 C   0  0  0  0  0  3  0  0  0  0  0  0
  142.7400  138.3710  154.0190 C   0  0  0  0  0  0  0  0  0  0  0  0
  141.8980  137.7460  154.9020 O   0  0  0  0  0  0  0  0  0  0  0  0
  141.0960  137.3700  154.5980 H   0  0  0  0  0  0  0  0  0  0  0  0
  141.3880  137.0730  150.8890 C   0  0  0  0  0  1  0  0  0  0  0  0
  141.5030  137.3820  152.2700 O   0  0  0  0  0  0  0  0  0  0  0  0
  1 20  1  0  0  0  0
  2  1  1  0  0  0  0
  3  4  1  0  0  0  0
  3  2  1  0  0  0  0
  4  5  1  0  0  0  0
  5  6  2  0  0  0  0
  5  7  1  0  0  0  0
  7  9  1  0  0  0  0
  8  7  1  0  0  0  0
  9 10  1  0  0  0  0
 10 11  1  0  0  0  0
 11 12  2  0  0  0  0
 13 12  1  0  0  0  0
 13 18  1  0  0  0  0
 14 13  2  0  0  0  0
 15 10  2  0  0  0  0
 15 14  1  0  0  0  0
 16 14  1  0  0  0  0
 17 16  1  0  0  0  0
 18 19  1  0  0  0  0
 20 21  1  0  0  0  0
 21 22  1  0  0  0  0
 22 24  1  0  0  0  0
 23 27  1  0  0  0  0
 24 25  2  0  0  0  0
 24 23  1  0  0  0  0
 26 23  1  0  0  0  0
 28 33  1  0  0  0  0
 29 30  1  0  0  0  0
 29 28  2  0  0  0  0
 30 31  2  0  0  0  0
 31 27  1  0  0  0  0
 31 32  1  0  0  0  0
 33 32  2  0  0  0  0
 33 34  1  0  0  0  0
 35 34  1  0  0  0  0
 36 37  1  0  0  0  0
 37 28  1  0  0  0  0
M  END
>  <MODEL>
2

>  <REMARK>
 VINA RESULT:    -6.545      2.026      5.319
 INTER + INTRA:         -14.707
 INTER:                 -10.882
 INTRA:                  -3.825
 UNBOUND:                -2.423
  Name = CHEMBL122370
  18 active torsions:
  status: ('A' for Active; 'I' for Inactive)
    1  A    between atoms: C_1  and  O_2
    2  A    between atoms: O_2  and  C_3
    3  A    between atoms: C_6  and  C_7
    4  A    between atoms: C_7  and  N_8
    5  A    between atoms: C_9  and  C_11
    6  A    between atoms: C_11  and  C_12
    7  A    between atoms: C_12  and  C_13
    8  A    between atoms: C_13  and  C_14
    9  A    between atoms: C_14  and  C_15
   10  A    between atoms: C_15  and  C_16
   11  A    between atoms: C_16  and  C_17
   12  A    between atoms: C_17  and  C_18
   13  A    between atoms: N_20  and  C_21
   14  A    between atoms: C_21  and  C_22
   15  A    between atoms: C_25  and  O_26
   16  A    between atoms: O_26  and  C_27
   17  A    between atoms: C_28  and  O_29
   18  A    between atoms: C_32  and  O_33
                            x       y       z     vdW  Elec       q    Type
                         _______ _______ _______ _____ _____    ______ ____

>  <TORSDO>
F 16

>  <SCORE>
-6.545

>  <RMSD_LB>
2.026

>  <RMSD_UB>
5.319

$$$$
CHEMBL122370
 OpenBabel10172500163D

 37 38  0  0  0  0  0  0  0  0999 V2000
  139.2530  134.1930  148.2000 C   0  0  0  0  0  2  0  0  0  0  0  0
  140.0310  135.5020  148.3470 C   0  0  0  0  0  2  0  0  0  0  0  0
  141.3490  135.5250  147.5660 C   0  0  0  0  0  2  0  0  0  0  0  0
  142.2770  136.6540  148.0120 C   0  0  0  0  0  2  0  0  0  0  0  0
  142.8140  136.3860  149.3960 C   0  0  0  0  0  0  0  0  0  0  0  0
  143.3480  135.3210  149.6890 O   0  0  0  0  0  0  0  0  0  0  0  0
  142.6040  137.4150  150.2800 N   0  0  0  0  0  0  0  0  0  0  0  0
  142.1550  138.2320  149.9620 H   0  0  0  0  0  0  0  0  0  0  0  0
  143.0190  137.3390  151.6590 C   0  0  0  0  0  2  0  0  0  0  0  0
  141.9270  137.7450  152.6150 C   0  0  0  0  0  0  0  0  0  0  0  0
  140.6120  137.9120  152.1530 C   0  0  0  0  0  3  0  0  0  0  0  0
  139.5850  138.3160  153.0160 C   0  0  0  0  0  3  0  0  0  0  0  0
  139.8580  138.5490  154.3610 C   0  0  0  0  0  0  0  0  0  0  0  0
  141.1690  138.3720  154.8190 C   0  0  0  0  0  0  0  0  0  0  0  0
  142.1960  137.9690  153.9700 C   0  0  0  0  0  3  0  0  0  0  0  0
  141.4740  138.6020  156.1360 O   0  0  0  0  0  0  0  0  0  0  0  0
  142.2290  139.1100  156.3590 H   0  0  0  0  0  0  0  0  0  0  0  0
  138.9520  138.9470  155.3130 O   0  0  0  0  0  0  0  0  0  0  0  0
  137.6870  138.2930  155.2940 C   0  0  0  0  0  1  0  0  0  0  0  0
  137.9170  134.3850  147.4780 C   0  0  0  0  0  2  0  0  0  0  0  0
  137.5490  133.2000  146.5930 C   0  0  0  0  0  2  0  0  0  0  0  0
  136.5990  133.5790  145.4550 C   0  0  0  0  0  2  0  0  0  0  0  0
  134.8620  133.1740  147.0850 N   0  0  0  0  0  0  0  0  0  0  0  0
  135.2220  133.9120  145.9840 C   0  0  0  0  0  0  0  0  0  0  0  0
  134.4840  134.7460  145.4630 O   0  0  0  0  0  0  0  0  0  0  0  0
  135.5120  132.5530  147.4850 H   0  0  0  0  0  0  0  0  0  0  0  0
  133.5480  133.2950  147.6660 C   0  0  0  0  0  2  0  0  0  0  0  0
  133.7680  134.2230  151.8890 C   0  0  0  0  0  0  0  0  0  0  0  0
  132.5350  134.1930  151.2320 C   0  0  0  0  0  3  0  0  0  0  0  0
  132.4620  133.8810  149.8700 C   0  0  0  0  0  3  0  0  0  0  0  0
  133.6210  133.6030  149.1370 C   0  0  0  0  0  0  0  0  0  0  0  0
  134.8590  133.6220  149.7950 C   0  0  0  0  0  3  0  0  0  0  0  0
  134.9270  133.9370  151.1540 C   0  0  0  0  0  0  0  0  0  0  0  0
  136.1450  133.9780  151.7820 O   0  0  0  0  0  0  0  0  0  0  0  0
  136.2120  133.7610  152.6900 H   0  0  0  0  0  0  0  0  0  0  0  0
  134.0220  135.8920  153.5670 C   0  0  0  0  0  1  0  0  0  0  0  0
  133.9390  134.5190  153.2160 O   0  0  0  0  0  0  0  0  0  0  0  0
  1  2  1  0  0  0  0
  3  4  1  0  0  0  0
  3  2  1  0  0  0  0
  4  5  1  0  0  0  0
  5  6  2  0  0  0  0
  5  7  1  0  0  0  0
  7  9  1  0  0  0  0
  8  7  1  0  0  0  0
  9 10  1  0  0  0  0
 10 15  1  0  0  0  0
 11 10  2  0  0  0  0
 11 12  1  0  0  0  0
 12 13  2  0  0  0  0
 13 14  1  0  0  0  0
 13 18  1  0  0  0  0
 14 16  1  0  0  0  0
 15 14  2  0  0  0  0
 16 17  1  0  0  0  0
 19 18  1  0  0  0  0
 20  1  1  0  0  0  0
 21 20  1  0  0  0  0
 22 24  1  0  0  0  0
 22 21  1  0  0  0  0
 23 26  1  0  0  0  0
 23 27  1  0  0  0  0
 24 23  1  0  0  0  0
 25 24  2  0  0  0  0
 27 31  1  0  0  0  0
 28 37  1  0  0  0  0
 29 28  1  0  0  0  0
 30 29  2  0  0  0  0
 31 32  2  0  0  0  0
 31 30  1  0  0  0  0
 32 33  1  0  0  0  0
 33 34  1  0  0  0  0
 33 28  2  0  0  0  0
 34 35  1  0  0  0  0
 37 36  1  0  0  0  0
M  END
>  <MODEL>
3

>  <REMARK>
 VINA RESULT:    -6.089      6.494     10.431
 INTER + INTRA:         -13.851
 INTER:                 -12.532
 INTRA:                  -1.319
 UNBOUND:                -2.423
  Name = CHEMBL122370
  18 active torsions:
  status: ('A' for Active; 'I' for Inactive)
    1  A    between atoms: C_1  and  O_2
    2  A    between atoms: O_2  and  C_3
    3  A    between atoms: C_6  and  C_7
    4  A    between atoms: C_7  and  N_8
    5  A    between atoms: C_9  and  C_11
    6  A    between atoms: C_11  and  C_12
    7  A    between atoms: C_12  and  C_13
    8  A    between atoms: C_13  and  C_14
    9  A    between atoms: C_14  and  C_15
   10  A    between atoms: C_15  and  C_16
   11  A    between atoms: C_16  and  C_17
   12  A    between atoms: C_17  and  C_18
   13  A    between atoms: N_20  and  C_21
   14  A    between atoms: C_21  and  C_22
   15  A    between atoms: C_25  and  O_26
   16  A    between atoms: O_26  and  C_27
   17  A    between atoms: C_28  and  O_29
   18  A    between atoms: C_32  and  O_33
                            x       y       z     vdW  Elec       q    Type
                         _______ _______ _______ _____ _____    ______ ____

>  <TORSDO>
F 16

>  <SCORE>
-6.089

>  <RMSD_LB>
6.494

>  <RMSD_UB>
10.431

$$$$
CHEMBL122370
 OpenBabel10172500163D

 37 38  0  0  0  0  0  0  0  0999 V2000
  138.4350  140.0780  150.1150 C   0  0  0  0  0  2  0  0  0  0  0  0
  139.7070  140.8010  149.6700 C   0  0  0  0  0  2  0  0  0  0  0  0
  140.9920  140.0140  149.9490 C   0  0  0  0  0  2  0  0  0  0  0  0
  140.7180  138.5660  150.3520 C   0  0  0  0  0  2  0  0  0  0  0  0
  141.4650  138.2140  151.6140 C   0  0  0  0  0  0  0  0  0  0  0  0
  141.6590  137.0490  151.9500 O   0  0  0  0  0  0  0  0  0  0  0  0
  141.8520  139.3060  152.3500 N   0  0  0  0  0  0  0  0  0  0  0  0
  141.6440  140.2070  152.0110 H   0  0  0  0  0  0  0  0  0  0  0  0
  142.5530  139.1760  153.6040 C   0  0  0  0  0  2  0  0  0  0  0  0
  144.0040  138.8110  153.4200 C   0  0  0  0  0  0  0  0  0  0  0  0
  144.9010  139.7410  152.8720 C   0  0  0  0  0  3  0  0  0  0  0  0
  146.2480  139.4160  152.6660 C   0  0  0  0  0  3  0  0  0  0  0  0
  146.7210  138.1550  153.0160 C   0  0  0  0  0  0  0  0  0  0  0  0
  145.8250  137.2340  153.5720 C   0  0  0  0  0  0  0  0  0  0  0  0
  144.4850  137.5470  153.7820 C   0  0  0  0  0  3  0  0  0  0  0  0
  146.2550  135.9800  153.9190 O   0  0  0  0  0  0  0  0  0  0  0  0
  146.1420  135.2640  153.3260 H   0  0  0  0  0  0  0  0  0  0  0  0
  148.0100  137.7050  152.8690 O   0  0  0  0  0  0  0  0  0  0  0  0
  148.9630  138.2030  153.8040 C   0  0  0  0  0  1  0  0  0  0  0  0
  137.3250  140.1460  149.0640 C   0  0  0  0  0  2  0  0  0  0  0  0
  137.5700  139.2120  147.8860 C   0  0  0  0  0  2  0  0  0  0  0  0
  137.9430  137.7920  148.3180 C   0  0  0  0  0  2  0  0  0  0  0  0
  137.5350  136.8340  150.4980 N   0  0  0  0  0  0  0  0  0  0  0  0
  136.9530  137.2520  149.3260 C   0  0  0  0  0  0  0  0  0  0  0  0
  135.7460  137.1720  149.1080 O   0  0  0  0  0  0  0  0  0  0  0  0
  138.5010  136.9650  150.6320 H   0  0  0  0  0  0  0  0  0  0  0  0
  136.7540  136.2070  151.5360 C   0  0  0  0  0  2  0  0  0  0  0  0
  137.6530  137.8850  155.4240 C   0  0  0  0  0  0  0  0  0  0  0  0
  136.7080  136.8640  155.2920 C   0  0  0  0  0  3  0  0  0  0  0  0
  136.4250  136.3130  154.0380 C   0  0  0  0  0  3  0  0  0  0  0  0
  137.0760  136.7790  152.8900 C   0  0  0  0  0  0  0  0  0  0  0  0
  138.0320  137.7960  153.0190 C   0  0  0  0  0  3  0  0  0  0  0  0
  138.3080  138.3450  154.2740 C   0  0  0  0  0  0  0  0  0  0  0  0
  139.2260  139.3570  154.3850 O   0  0  0  0  0  0  0  0  0  0  0  0
  138.9450  140.2500  154.3500 H   0  0  0  0  0  0  0  0  0  0  0  0
  138.4290  137.6400  157.6610 C   0  0  0  0  0  1  0  0  0  0  0  0
  137.9930  138.4860  156.6080 O   0  0  0  0  0  0  0  0  0  0  0  0
  2  3  1  0  0  0  0
  2  1  1  0  0  0  0
  3  4  1  0  0  0  0
  4  5  1  0  0  0  0
  5  6  2  0  0  0  0
  5  7  1  0  0  0  0
  7  9  1  0  0  0  0
  8  7  1  0  0  0  0
 10  9  1  0  0  0  0
 10 15  1  0  0  0  0
 11 10  2  0  0  0  0
 12 11  1  0  0  0  0
 12 13  2  0  0  0  0
 13 14  1  0  0  0  0
 14 15  2  0  0  0  0
 14 16  1  0  0  0  0
 17 16  1  0  0  0  0
 18 13  1  0  0  0  0
 18 19  1  0  0  0  0
 20  1  1  0  0  0  0
 21 22  1  0  0  0  0
 21 20  1  0  0  0  0
 22 24  1  0  0  0  0
 23 26  1  0  0  0  0
 23 27  1  0  0  0  0
 24 23  1  0  0  0  0
 25 24  2  0  0  0  0
 27 31  1  0  0  0  0
 28 37  1  0  0  0  0
 29 28  1  0  0  0  0
 30 29  2  0  0  0  0
 31 32  2  0  0  0  0
 31 30  1  0  0  0  0
 32 33  1  0  0  0  0
 33 34  1  0  0  0  0
 33 28  2  0  0  0  0
 35 34  1  0  0  0  0
 37 36  1  0  0  0  0
M  END
>  <MODEL>
4

>  <REMARK>
 VINA RESULT:    -6.081      3.673      8.397
 INTER + INTRA:         -13.836
 INTER:                 -11.825
 INTRA:                  -2.011
 UNBOUND:                -2.423
  Name = CHEMBL122370
  18 active torsions:
  status: ('A' for Active; 'I' for Inactive)
    1  A    between atoms: C_1  and  O_2
    2  A    between atoms: O_2  and  C_3
    3  A    between atoms: C_6  and  C_7
    4  A    between atoms: C_7  and  N_8
    5  A    between atoms: C_9  and  C_11
    6  A    between atoms: C_11  and  C_12
    7  A    between atoms: C_12  and  C_13
    8  A    between atoms: C_13  and  C_14
    9  A    between atoms: C_14  and  C_15
   10  A    between atoms: C_15  and  C_16
   11  A    between atoms: C_16  and  C_17
   12  A    between atoms: C_17  and  C_18
   13  A    between atoms: N_20  and  C_21
   14  A    between atoms: C_21  and  C_22
   15  A    between atoms: C_25  and  O_26
   16  A    between atoms: O_26  and  C_27
   17  A    between atoms: C_28  and  O_29
   18  A    between atoms: C_32  and  O_33
                            x       y       z     vdW  Elec       q    Type
                         _______ _______ _______ _____ _____    ______ ____

>  <TORSDO>
F 16

>  <SCORE>
-6.081

>  <RMSD_LB>
3.673

>  <RMSD_UB>
8.397

$$$$
CHEMBL122370
 OpenBabel10172500163D

 37 38  0  0  0  0  0  0  0  0999 V2000
  141.3830  137.0550  149.0480 C   0  0  0  0  0  2  0  0  0  0  0  0
  142.0630  135.6880  148.9680 C   0  0  0  0  0  2  0  0  0  0  0  0
  143.5060  135.6880  149.4820 C   0  0  0  0  0  2  0  0  0  0  0  0
  144.5300  135.5300  148.3580 C   0  0  0  0  0  2  0  0  0  0  0  0
  144.9860  136.8790  147.8610 C   0  0  0  0  0  0  0  0  0  0  0  0
  144.4620  137.4250  146.8950 O   0  0  0  0  0  0  0  0  0  0  0  0
  146.0530  137.3920  148.5560 N   0  0  0  0  0  0  0  0  0  0  0  0
  146.4190  136.8800  149.3130 H   0  0  0  0  0  0  0  0  0  0  0  0
  146.6520  138.6590  148.2140 C   0  0  0  0  0  2  0  0  0  0  0  0
  146.5910  139.6520  149.3460 C   0  0  0  0  0  0  0  0  0  0  0  0
  146.8220  139.2320  150.6660 C   0  0  0  0  0  3  0  0  0  0  0  0
  146.7440  140.1300  151.7380 C   0  0  0  0  0  3  0  0  0  0  0  0
  146.4440  141.4690  151.5050 C   0  0  0  0  0  0  0  0  0  0  0  0
  146.2250  141.8850  150.1860 C   0  0  0  0  0  0  0  0  0  0  0  0
  146.3010  141.0010  149.1130 C   0  0  0  0  0  3  0  0  0  0  0  0
  145.9180  143.1950  149.9200 O   0  0  0  0  0  0  0  0  0  0  0  0
  145.7740  143.7940  150.6250 H   0  0  0  0  0  0  0  0  0  0  0  0
  146.3360  142.4510  152.4570 O   0  0  0  0  0  0  0  0  0  0  0  0
  146.5230  142.0450  153.8080 C   0  0  0  0  0  1  0  0  0  0  0  0
  140.3020  137.1090  150.1310 C   0  0  0  0  0  2  0  0  0  0  0  0
  140.8670  137.4210  151.5120 C   0  0  0  0  0  2  0  0  0  0  0  0
  140.1650  138.5990  152.1910 C   0  0  0  0  0  2  0  0  0  0  0  0
  138.9810  137.8800  154.1700 N   0  0  0  0  0  0  0  0  0  0  0  0
  140.1470  138.4290  153.6930 C   0  0  0  0  0  0  0  0  0  0  0  0
  141.0760  138.7730  154.4210 O   0  0  0  0  0  0  0  0  0  0  0  0
  138.2910  137.5840  153.5350 H   0  0  0  0  0  0  0  0  0  0  0  0
  138.7530  137.7300  155.5870 C   0  0  0  0  0  2  0  0  0  0  0  0
  135.3300  135.2000  156.3730 C   0  0  0  0  0  0  0  0  0  0  0  0
  136.1360  135.6490  157.4220 C   0  0  0  0  0  3  0  0  0  0  0  0
  137.2360  136.4770  157.1700 C   0  0  0  0  0  3  0  0  0  0  0  0
  137.5550  136.8630  155.8630 C   0  0  0  0  0  0  0  0  0  0  0  0
  136.7420  136.4220  154.8090 C   0  0  0  0  0  3  0  0  0  0  0  0
  135.6470  135.5940  155.0660 C   0  0  0  0  0  0  0  0  0  0  0  0
  134.8750  135.1470  154.0260 O   0  0  0  0  0  0  0  0  0  0  0  0
  134.3930  135.7580  153.5040 H   0  0  0  0  0  0  0  0  0  0  0  0
  133.5500  134.4470  157.7640 C   0  0  0  0  0  1  0  0  0  0  0  0
  134.2360  134.3860  156.5220 O   0  0  0  0  0  0  0  0  0  0  0  0
  1 20  1  0  0  0  0
  2  1  1  0  0  0  0
  2  3  1  0  0  0  0
  4  3  1  0  0  0  0
  5  4  1  0  0  0  0
  5  7  1  0  0  0  0
  6  5  2  0  0  0  0
  7  8  1  0  0  0  0
  9  7  1  0  0  0  0
  9 10  1  0  0  0  0
 10 11  1  0  0  0  0
 11 12  2  0  0  0  0
 13 12  1  0  0  0  0
 13 18  1  0  0  0  0
 14 13  2  0  0  0  0
 15 10  2  0  0  0  0
 15 14  1  0  0  0  0
 16 14  1  0  0  0  0
 16 17  1  0  0  0  0
 18 19  1  0  0  0  0
 20 21  1  0  0  0  0
 21 22  1  0  0  0  0
 22 24  1  0  0  0  0
 23 27  1  0  0  0  0
 24 23  1  0  0  0  0
 24 25  2  0  0  0  0
 26 23  1  0  0  0  0
 27 31  1  0  0  0  0
 28 37  1  0  0  0  0
 28 29  1  0  0  0  0
 30 29  2  0  0  0  0
 31 30  1  0  0  0  0
 32 33  1  0  0  0  0
 32 31  2  0  0  0  0
 33 28  2  0  0  0  0
 34 33  1  0  0  0  0
 35 34  1  0  0  0  0
 37 36  1  0  0  0  0
M  END
>  <MODEL>
5

>  <REMARK>
 VINA RESULT:    -5.909      3.567      9.023
 INTER + INTRA:         -13.513
 INTER:                 -12.286
 INTRA:                  -1.227
 UNBOUND:                -2.423
  Name = CHEMBL122370
  18 active torsions:
  status: ('A' for Active; 'I' for Inactive)
    1  A    between atoms: C_1  and  O_2
    2  A    between atoms: O_2  and  C_3
    3  A    between atoms: C_6  and  C_7
    4  A    between atoms: C_7  and  N_8
    5  A    between atoms: C_9  and  C_11
    6  A    between atoms: C_11  and  C_12
    7  A    between atoms: C_12  and  C_13
    8  A    between atoms: C_13  and  C_14
    9  A    between atoms: C_14  and  C_15
   10  A    between atoms: C_15  and  C_16
   11  A    between atoms: C_16  and  C_17
   12  A    between atoms: C_17  and  C_18
   13  A    between atoms: N_20  and  C_21
   14  A    between atoms: C_21  and  C_22
   15  A    between atoms: C_25  and  O_26
   16  A    between atoms: O_26  and  C_27
   17  A    between atoms: C_28  and  O_29
   18  A    between atoms: C_32  and  O_33
                            x       y       z     vdW  Elec       q    Type
                         _______ _______ _______ _____ _____    ______ ____

>  <TORSDO>
F 16

>  <SCORE>
-5.909

>  <RMSD_LB>
3.567

>  <RMSD_UB>
9.023

$$$$
CHEMBL122370
 OpenBabel10172500163D

 37 38  0  0  0  0  0  0  0  0999 V2000
  134.2530  135.7240  147.9600 C   0  0  0  0  0  2  0  0  0  0  0  0
  132.8700  135.1050  148.1640 C   0  0  0  0  0  2  0  0  0  0  0  0
  132.8460  133.5830  147.9910 C   0  0  0  0  0  2  0  0  0  0  0  0
  133.8940  132.8780  148.8530 C   0  0  0  0  0  2  0  0  0  0  0  0
  134.6980  131.9060  148.0240 C   0  0  0  0  0  0  0  0  0  0  0  0
  134.7230  130.7050  148.2750 O   0  0  0  0  0  0  0  0  0  0  0  0
  135.4160  132.5020  147.0170 N   0  0  0  0  0  0  0  0  0  0  0  0
  135.3460  133.4760  146.8930 H   0  0  0  0  0  0  0  0  0  0  0  0
  136.2690  131.7450  146.1330 C   0  0  0  0  0  2  0  0  0  0  0  0
  136.5750  132.4820  144.8550 C   0  0  0  0  0  0  0  0  0  0  0  0
  137.0980  131.7910  143.7500 C   0  0  0  0  0  3  0  0  0  0  0  0
  137.4160  132.4570  142.5600 C   0  0  0  0  0  3  0  0  0  0  0  0
  137.2060  133.8290  142.4530 C   0  0  0  0  0  0  0  0  0  0  0  0
  136.6740  134.5130  143.5530 C   0  0  0  0  0  0  0  0  0  0  0  0
  136.3530  133.8590  144.7400 C   0  0  0  0  0  3  0  0  0  0  0  0
  136.4630  135.8660  143.4860 O   0  0  0  0  0  0  0  0  0  0  0  0
  135.8200  136.2110  142.8990 H   0  0  0  0  0  0  0  0  0  0  0  0
  137.4720  134.6050  141.3520 O   0  0  0  0  0  0  0  0  0  0  0  0
  136.7310  134.3040  140.1740 C   0  0  0  0  0  1  0  0  0  0  0  0
  134.6330  136.6920  149.0840 C   0  0  0  0  0  2  0  0  0  0  0  0
  135.6970  136.1240  150.0160 C   0  0  0  0  0  2  0  0  0  0  0  0
  137.1090  136.2170  149.4350 C   0  0  0  0  0  2  0  0  0  0  0  0
  137.5010  137.4590  147.4000 N   0  0  0  0  0  0  0  0  0  0  0  0
  137.3340  137.5510  148.7610 C   0  0  0  0  0  0  0  0  0  0  0  0
  137.3880  138.6150  149.3740 O   0  0  0  0  0  0  0  0  0  0  0  0
  137.4020  136.5850  146.9590 H   0  0  0  0  0  0  0  0  0  0  0  0
  137.8160  138.6220  146.6070 C   0  0  0  0  0  2  0  0  0  0  0  0
  134.5950  139.5950  143.8840 C   0  0  0  0  0  0  0  0  0  0  0  0
  134.3510  138.8300  145.0280 C   0  0  0  0  0  3  0  0  0  0  0  0
  135.3890  138.5250  145.9150 C   0  0  0  0  0  3  0  0  0  0  0  0
  136.6920  138.9720  145.6700 C   0  0  0  0  0  0  0  0  0  0  0  0
  136.9390  139.7480  144.5280 C   0  0  0  0  0  3  0  0  0  0  0  0
  135.8990  140.0470  143.6450 C   0  0  0  0  0  0  0  0  0  0  0  0
  136.1560  140.7850  142.5180 O   0  0  0  0  0  0  0  0  0  0  0  0
  136.4000  140.3550  141.7220 H   0  0  0  0  0  0  0  0  0  0  0  0
  132.4400  139.1880  142.9560 C   0  0  0  0  0  1  0  0  0  0  0  0
  133.6440  139.9410  142.9590 O   0  0  0  0  0  0  0  0  0  0  0  0
  1  2  1  0  0  0  0
  1 20  1  0  0  0  0
  3  2  1  0  0  0  0
  3  4  1  0  0  0  0
  5  6  2  0  0  0  0
  5  4  1  0  0  0  0
  7  5  1  0  0  0  0
  8  7  1  0  0  0  0
  9  7  1  0  0  0  0
 10  9  1  0  0  0  0
 11 10  2  0  0  0  0
 12 11  1  0  0  0  0
 13 12  2  0  0  0  0
 13 14  1  0  0  0  0
 14 15  2  0  0  0  0
 15 10  1  0  0  0  0
 16 14  1  0  0  0  0
 17 16  1  0  0  0  0
 18 13  1  0  0  0  0
 19 18  1  0  0  0  0
 20 21  1  0  0  0  0
 22 21  1  0  0  0  0
 23 24  1  0  0  0  0
 24 25  2  0  0  0  0
 24 22  1  0  0  0  0
 26 23  1  0  0  0  0
 27 23  1  0  0  0  0
 28 29  1  0  0  0  0
 29 30  2  0  0  0  0
 31 30  1  0  0  0  0
 31 27  1  0  0  0  0
 32 31  2  0  0  0  0
 33 28  2  0  0  0  0
 33 32  1  0  0  0  0
 34 33  1  0  0  0  0
 35 34  1  0  0  0  0
 36 37  1  0  0  0  0
 37 28  1  0  0  0  0
M  END
>  <MODEL>
6

>  <REMARK>
 VINA RESULT:    -5.822      9.867     13.281
 INTER + INTRA:         -13.351
 INTER:                 -11.037
 INTRA:                  -2.314
 UNBOUND:                -2.423
  Name = CHEMBL122370
  18 active torsions:
  status: ('A' for Active; 'I' for Inactive)
    1  A    between atoms: C_1  and  O_2
    2  A    between atoms: O_2  and  C_3
    3  A    between atoms: C_6  and  C_7
    4  A    between atoms: C_7  and  N_8
    5  A    between atoms: C_9  and  C_11
    6  A    between atoms: C_11  and  C_12
    7  A    between atoms: C_12  and  C_13
    8  A    between atoms: C_13  and  C_14
    9  A    between atoms: C_14  and  C_15
   10  A    between atoms: C_15  and  C_16
   11  A    between atoms: C_16  and  C_17
   12  A    between atoms: C_17  and  C_18
   13  A    between atoms: N_20  and  C_21
   14  A    between atoms: C_21  and  C_22
   15  A    between atoms: C_25  and  O_26
   16  A    between atoms: O_26  and  C_27
   17  A    between atoms: C_28  and  O_29
   18  A    between atoms: C_32  and  O_33
                            x       y       z     vdW  Elec       q    Type
                         _______ _______ _______ _____ _____    ______ ____

>  <TORSDO>
F 16

>  <SCORE>
-5.822

>  <RMSD_LB>
9.867

>  <RMSD_UB>
13.281

$$$$
CHEMBL122370
 OpenBabel10172500163D

 37 38  0  0  0  0  0  0  0  0999 V2000
  140.3720  135.5880  147.1520 C   0  0  0  0  0  2  0  0  0  0  0  0
  141.1670  136.6920  147.8500 C   0  0  0  0  0  2  0  0  0  0  0  0
  140.8500  136.8280  149.3430 C   0  0  0  0  0  2  0  0  0  0  0  0
  142.1080  136.8430  150.2110 C   0  0  0  0  0  2  0  0  0  0  0  0
  142.9770  138.0270  149.8680 C   0  0  0  0  0  0  0  0  0  0  0  0
  143.8740  137.9530  149.0340 O   0  0  0  0  0  0  0  0  0  0  0  0
  142.6950  139.1520  150.6030 N   0  0  0  0  0  0  0  0  0  0  0  0
  141.9640  139.1190  151.2620 H   0  0  0  0  0  0  0  0  0  0  0  0
  143.4360  140.3790  150.4420 C   0  0  0  0  0  2  0  0  0  0  0  0
  144.4800  140.5680  151.5120 C   0  0  0  0  0  0  0  0  0  0  0  0
  145.3310  141.6850  151.4780 C   0  0  0  0  0  3  0  0  0  0  0  0
  146.3270  141.8690  152.4450 C   0  0  0  0  0  3  0  0  0  0  0  0
  146.4810  140.9420  153.4710 C   0  0  0  0  0  0  0  0  0  0  0  0
  145.6230  139.8350  153.5080 C   0  0  0  0  0  0  0  0  0  0  0  0
  144.6290  139.6440  152.5520 C   0  0  0  0  0  3  0  0  0  0  0  0
  145.7530  138.8970  154.4990 O   0  0  0  0  0  0  0  0  0  0  0  0
  145.7120  137.9850  154.2890 H   0  0  0  0  0  0  0  0  0  0  0  0
  147.4100  140.9980  154.4790 O   0  0  0  0  0  0  0  0  0  0  0  0
  148.5240  141.8590  154.2650 C   0  0  0  0  0  1  0  0  0  0  0  0
  139.0080  135.3470  147.8040 C   0  0  0  0  0  2  0  0  0  0  0  0
  138.5240  133.9110  147.6440 C   0  0  0  0  0  2  0  0  0  0  0  0
  137.7130  133.6940  146.3650 C   0  0  0  0  0  2  0  0  0  0  0  0
  135.3380  134.0380  146.6420 N   0  0  0  0  0  0  0  0  0  0  0  0
  136.3520  133.1130  146.6760 C   0  0  0  0  0  0  0  0  0  0  0  0
  136.1730  131.9290  146.9570 O   0  0  0  0  0  0  0  0  0  0  0  0
  135.5350  134.9620  146.3660 H   0  0  0  0  0  0  0  0  0  0  0  0
  133.9880  133.6790  147.0010 C   0  0  0  0  0  2  0  0  0  0  0  0
  133.1130  134.5800  151.1440 C   0  0  0  0  0  0  0  0  0  0  0  0
  133.6050  133.3240  150.7790 C   0  0  0  0  0  3  0  0  0  0  0  0
  133.9000  133.0360  149.4420 C   0  0  0  0  0  3  0  0  0  0  0  0
  133.6980  133.9950  148.4430 C   0  0  0  0  0  0  0  0  0  0  0  0
  133.2140  135.2600  148.8070 C   0  0  0  0  0  3  0  0  0  0  0  0
  132.9190  135.5410  150.1430 C   0  0  0  0  0  0  0  0  0  0  0  0
  132.4210  136.7730  150.4840 O   0  0  0  0  0  0  0  0  0  0  0  0
  132.2310  136.9690  151.3800 H   0  0  0  0  0  0  0  0  0  0  0  0
  133.8720  135.1460  153.3290 C   0  0  0  0  0  1  0  0  0  0  0  0
  132.7950  134.9520  152.4240 O   0  0  0  0  0  0  0  0  0  0  0  0
  1 20  1  0  0  0  0
  1  2  1  0  0  0  0
  2  3  1  0  0  0  0
  3  4  1  0  0  0  0
  5  4  1  0  0  0  0
  5  7  1  0  0  0  0
  6  5  2  0  0  0  0
  7  8  1  0  0  0  0
  9  7  1  0  0  0  0
  9 10  1  0  0  0  0
 10 15  1  0  0  0  0
 11 10  2  0  0  0  0
 11 12  1  0  0  0  0
 12 13  2  0  0  0  0
 13 14  1  0  0  0  0
 13 18  1  0  0  0  0
 14 16  1  0  0  0  0
 15 14  2  0  0  0  0
 17 16  1  0  0  0  0
 19 18  1  0  0  0  0
 21 20  1  0  0  0  0
 22 24  1  0  0  0  0
 22 21  1  0  0  0  0
 23 24  1  0  0  0  0
 23 27  1  0  0  0  0
 24 25  2  0  0  0  0
 26 23  1  0  0  0  0
 27 31  1  0  0  0  0
 28 37  1  0  0  0  0
 29 28  1  0  0  0  0
 30 29  2  0  0  0  0
 31 32  2  0  0  0  0
 31 30  1  0  0  0  0
 32 33  1  0  0  0  0
 33 34  1  0  0  0  0
 33 28  2  0  0  0  0
 34 35  1  0  0  0  0
 37 36  1  0  0  0  0
M  END
>  <MODEL>
7

>  <REMARK>
 VINA RESULT:    -5.799      6.404     10.709
 INTER + INTRA:         -13.306
 INTER:                 -12.353
 INTRA:                  -0.953
 UNBOUND:                -2.423
  Name = CHEMBL122370
  18 active torsions:
  status: ('A' for Active; 'I' for Inactive)
    1  A    between atoms: C_1  and  O_2
    2  A    between atoms: O_2  and  C_3
    3  A    between atoms: C_6  and  C_7
    4  A    between atoms: C_7  and  N_8
    5  A    between atoms: C_9  and  C_11
    6  A    between atoms: C_11  and  C_12
    7  A    between atoms: C_12  and  C_13
    8  A    between atoms: C_13  and  C_14
    9  A    between atoms: C_14  and  C_15
   10  A    between atoms: C_15  and  C_16
   11  A    between atoms: C_16  and  C_17
   12  A    between atoms: C_17  and  C_18
   13  A    between atoms: N_20  and  C_21
   14  A    between atoms: C_21  and  C_22
   15  A    between atoms: C_25  and  O_26
   16  A    between atoms: O_26  and  C_27
   17  A    between atoms: C_28  and  O_29
   18  A    between atoms: C_32  and  O_33
                            x       y       z     vdW  Elec       q    Type
                         _______ _______ _______ _____ _____    ______ ____

>  <TORSDO>
F 16

>  <SCORE>
-5.799

>  <RMSD_LB>
6.404

>  <RMSD_UB>
10.709

$$$$
CHEMBL122370
 OpenBabel10172500163D

 37 38  0  0  0  0  0  0  0  0999 V2000
  135.1300  133.6100  145.1310 C   0  0  0  0  0  2  0  0  0  0  0  0
  136.1430  134.7480  145.2670 C   0  0  0  0  0  2  0  0  0  0  0  0
  135.8130  135.9700  144.4040 C   0  0  0  0  0  2  0  0  0  0  0  0
  134.3160  136.2710  144.3590 C   0  0  0  0  0  2  0  0  0  0  0  0
  133.8990  137.0810  145.5620 C   0  0  0  0  0  0  0  0  0  0  0  0
  134.2620  138.2430  145.7190 O   0  0  0  0  0  0  0  0  0  0  0  0
  133.1330  136.3820  146.4600 N   0  0  0  0  0  0  0  0  0  0  0  0
  132.8980  135.4470  146.2600 H   0  0  0  0  0  0  0  0  0  0  0  0
  132.6600  136.9730  147.6880 C   0  0  0  0  0  2  0  0  0  0  0  0
  133.4340  136.5010  148.8920 C   0  0  0  0  0  0  0  0  0  0  0  0
  134.8210  136.7040  148.9630 C   0  0  0  0  0  3  0  0  0  0  0  0
  135.5670  136.2510  150.0590 C   0  0  0  0  0  3  0  0  0  0  0  0
  134.9320  135.5940  151.1090 C   0  0  0  0  0  0  0  0  0  0  0  0
  133.5470  135.4020  151.0390 C   0  0  0  0  0  0  0  0  0  0  0  0
  132.7960  135.8510  149.9550 C   0  0  0  0  0  3  0  0  0  0  0  0
  132.8910  134.7510  152.0510 O   0  0  0  0  0  0  0  0  0  0  0  0
  132.6910  135.2040  152.8470 H   0  0  0  0  0  0  0  0  0  0  0  0
  135.5370  135.1000  152.2370 O   0  0  0  0  0  0  0  0  0  0  0  0
  136.1430  136.0570  153.1000 C   0  0  0  0  0  1  0  0  0  0  0  0
  135.7980  132.2650  144.8370 C   0  0  0  0  0  2  0  0  0  0  0  0
  135.9890  132.0150  143.3460 C   0  0  0  0  0  2  0  0  0  0  0  0
  137.4590  132.0450  142.9200 C   0  0  0  0  0  2  0  0  0  0  0  0
  136.7930  133.9150  141.5430 N   0  0  0  0  0  0  0  0  0  0  0  0
  137.6410  132.8400  141.6470 C   0  0  0  0  0  0  0  0  0  0  0  0
  138.4530  132.5380  140.7750 O   0  0  0  0  0  0  0  0  0  0  0  0
  136.1950  134.1340  142.2940 H   0  0  0  0  0  0  0  0  0  0  0  0
  136.7650  134.7310  140.3540 C   0  0  0  0  0  2  0  0  0  0  0  0
  135.4530  138.7540  141.2650 C   0  0  0  0  0  0  0  0  0  0  0  0
  136.7420  138.3340  141.6030 C   0  0  0  0  0  3  0  0  0  0  0  0
  137.1710  137.0380  141.2980 C   0  0  0  0  0  3  0  0  0  0  0  0
  136.3150  136.1340  140.6580 C   0  0  0  0  0  0  0  0  0  0  0  0
  135.0240  136.5550  140.3090 C   0  0  0  0  0  3  0  0  0  0  0  0
  134.6000  137.8500  140.6180 C   0  0  0  0  0  0  0  0  0  0  0  0
  133.3270  138.2430  140.2960 O   0  0  0  0  0  0  0  0  0  0  0  0
  133.0430  139.1140  140.4900 H   0  0  0  0  0  0  0  0  0  0  0  0
  134.5840  140.2850  142.8690 C   0  0  0  0  0  1  0  0  0  0  0  0
  134.9440  140.0010  141.5250 O   0  0  0  0  0  0  0  0  0  0  0  0
  1  2  1  0  0  0  0
  3  2  1  0  0  0  0
  4  3  1  0  0  0  0
  4  5  1  0  0  0  0
  5  6  2  0  0  0  0
  5  7  1  0  0  0  0
  7  9  1  0  0  0  0
  8  7  1  0  0  0  0
  9 10  1  0  0  0  0
 10 11  2  0  0  0  0
 10 15  1  0  0  0  0
 11 12  1  0  0  0  0
 12 13  2  0  0  0  0
 13 18  1  0  0  0  0
 14 13  1  0  0  0  0
 14 16  1  0  0  0  0
 15 14  2  0  0  0  0
 16 17  1  0  0  0  0
 18 19  1  0  0  0  0
 20  1  1  0  0  0  0
 21 20  1  0  0  0  0
 22 21  1  0  0  0  0
 23 24  1  0  0  0  0
 23 26  1  0  0  0  0
 24 22  1  0  0  0  0
 25 24  2  0  0  0  0
 27 31  1  0  0  0  0
 27 23  1  0  0  0  0
 28 37  1  0  0  0  0
 28 29  1  0  0  0  0
 30 29  2  0  0  0  0
 31 30  1  0  0  0  0
 32 33  1  0  0  0  0
 32 31  2  0  0  0  0
 33 28  2  0  0  0  0
 34 35  1  0  0  0  0
 34 33  1  0  0  0  0
 37 36  1  0  0  0  0
M  END
>  <MODEL>
8

>  <REMARK>
 VINA RESULT:    -5.717     10.850     13.615
 INTER + INTRA:         -13.154
 INTER:                 -10.829
 INTRA:                  -2.324
 UNBOUND:                -2.423
  Name = CHEMBL122370
  18 active torsions:
  status: ('A' for Active; 'I' for Inactive)
    1  A    between atoms: C_1  and  O_2
    2  A    between atoms: O_2  and  C_3
    3  A    between atoms: C_6  and  C_7
    4  A    between atoms: C_7  and  N_8
    5  A    between atoms: C_9  and  C_11
    6  A    between atoms: C_11  and  C_12
    7  A    between atoms: C_12  and  C_13
    8  A    between atoms: C_13  and  C_14
    9  A    between atoms: C_14  and  C_15
   10  A    between atoms: C_15  and  C_16
   11  A    between atoms: C_16  and  C_17
   12  A    between atoms: C_17  and  C_18
   13  A    between atoms: N_20  and  C_21
   14  A    between atoms: C_21  and  C_22
   15  A    between atoms: C_25  and  O_26
   16  A    between atoms: O_26  and  C_27
   17  A    between atoms: C_28  and  O_29
   18  A    between atoms: C_32  and  O_33
                            x       y       z     vdW  Elec       q    Type
                         _______ _______ _______ _____ _____    ______ ____

>  <TORSDO>
F 16

>  <SCORE>
-5.717

>  <RMSD_LB>
10.850

>  <RMSD_UB>
13.615

$$$$
CHEMBL122370
 OpenBabel10172500163D

 37 38  0  0  0  0  0  0  0  0999 V2000
  137.4660  134.5890  144.3990 C   0  0  0  0  0  2  0  0  0  0  0  0
  135.9490  134.4670  144.2470 C   0  0  0  0  0  2  0  0  0  0  0  0
  135.4260  133.0380  144.4300 C   0  0  0  0  0  2  0  0  0  0  0  0
  135.8870  132.4080  145.7440 C   0  0  0  0  0  2  0  0  0  0  0  0
  135.1370  133.0030  146.9110 C   0  0  0  0  0  0  0  0  0  0  0  0
  133.9170  132.9170  147.0090 O   0  0  0  0  0  0  0  0  0  0  0  0
  135.9400  133.6730  147.8000 N   0  0  0  0  0  0  0  0  0  0  0  0
  136.9110  133.7030  147.6360 H   0  0  0  0  0  0  0  0  0  0  0  0
  135.4070  134.3360  148.9650 C   0  0  0  0  0  2  0  0  0  0  0  0
  136.1080  135.6360  149.2620 C   0  0  0  0  0  0  0  0  0  0  0  0
  136.2910  136.5870  148.2440 C   0  0  0  0  0  3  0  0  0  0  0  0
  136.9620  137.7910  148.4880 C   0  0  0  0  0  3  0  0  0  0  0  0
  137.4540  138.0690  149.7600 C   0  0  0  0  0  0  0  0  0  0  0  0
  137.2600  137.1240  150.7750 C   0  0  0  0  0  0  0  0  0  0  0  0
  136.5930  135.9230  150.5430 C   0  0  0  0  0  3  0  0  0  0  0  0
  137.7400  137.3600  152.0370 O   0  0  0  0  0  0  0  0  0  0  0  0
  137.2960  137.9620  152.6010 H   0  0  0  0  0  0  0  0  0  0  0  0
  138.1280  139.2040  150.1370 O   0  0  0  0  0  0  0  0  0  0  0  0
  138.0010  140.3300  149.2740 C   0  0  0  0  0  1  0  0  0  0  0  0
  137.9850  135.9700  143.9900 C   0  0  0  0  0  2  0  0  0  0  0  0
  138.2380  136.8820  145.1840 C   0  0  0  0  0  2  0  0  0  0  0  0
  139.7240  137.0360  145.5130 C   0  0  0  0  0  2  0  0  0  0  0  0
  141.4300  136.2900  147.0530 N   0  0  0  0  0  0  0  0  0  0  0  0
  140.1310  136.1160  146.6410 C   0  0  0  0  0  0  0  0  0  0  0  0
  139.3790  135.2740  147.1290 O   0  0  0  0  0  0  0  0  0  0  0  0
  141.9700  137.0100  146.6560 H   0  0  0  0  0  0  0  0  0  0  0  0
  142.0150  135.4360  148.0570 C   0  0  0  0  0  2  0  0  0  0  0  0
  142.3320  137.4920  151.8540 C   0  0  0  0  0  0  0  0  0  0  0  0
  141.0900  137.3370  151.2320 C   0  0  0  0  0  3  0  0  0  0  0  0
  140.9850  136.6620  150.0110 C   0  0  0  0  0  3  0  0  0  0  0  0
  142.1210  136.1380  149.3840 C   0  0  0  0  0  0  0  0  0  0  0  0
  143.3670  136.2820  150.0100 C   0  0  0  0  0  3  0  0  0  0  0  0
  143.4670  136.9590  151.2280 C   0  0  0  0  0  0  0  0  0  0  0  0
  144.6940  137.1180  151.8190 O   0  0  0  0  0  0  0  0  0  0  0  0
  145.3230  136.4240  151.7850 H   0  0  0  0  0  0  0  0  0  0  0  0
  141.4040  138.7610  153.6420 C   0  0  0  0  0  1  0  0  0  0  0  0
  142.5320  138.1380  153.0460 O   0  0  0  0  0  0  0  0  0  0  0  0
  2  1  1  0  0  0  0
  2  3  1  0  0  0  0
  3  4  1  0  0  0  0
  4  5  1  0  0  0  0
  5  6  2  0  0  0  0
  5  7  1  0  0  0  0
  7  9  1  0  0  0  0
  8  7  1  0  0  0  0
  9 10  1  0  0  0  0
 10 15  1  0  0  0  0
 11 12  1  0  0  0  0
 11 10  2  0  0  0  0
 12 13  2  0  0  0  0
 13 18  1  0  0  0  0
 13 14  1  0  0  0  0
 14 16  1  0  0  0  0
 15 14  2  0  0  0  0
 16 17  1  0  0  0  0
 19 18  1  0  0  0  0
 20  1  1  0  0  0  0
 20 21  1  0  0  0  0
 21 22  1  0  0  0  0
 22 24  1  0  0  0  0
 23 27  1  0  0  0  0
 24 23  1  0  0  0  0
 24 25  2  0  0  0  0
 26 23  1  0  0  0  0
 27 31  1  0  0  0  0
 28 37  1  0  0  0  0
 29 28  1  0  0  0  0
 30 29  2  0  0  0  0
 31 32  2  0  0  0  0
 31 30  1  0  0  0  0
 32 33  1  0  0  0  0
 33 34  1  0  0  0  0
 33 28  2  0  0  0  0
 35 34  1  0  0  0  0
 37 36  1  0  0  0  0
M  END
>  <MODEL>
9

>  <REMARK>
 VINA RESULT:    -5.375      6.521      8.807
 INTER + INTRA:         -12.512
 INTER:                 -10.089
 INTRA:                  -2.423
 UNBOUND:                -2.423
  Name = CHEMBL122370
  18 active torsions:
  status: ('A' for Active; 'I' for Inactive)
    1  A    between atoms: C_1  and  O_2
    2  A    between atoms: O_2  and  C_3
    3  A    between atoms: C_6  and  C_7
    4  A    between atoms: C_7  and  N_8
    5  A    between atoms: C_9  and  C_11
    6  A    between atoms: C_11  and  C_12
    7  A    between atoms: C_12  and  C_13
    8  A    between atoms: C_13  and  C_14
    9  A    between atoms: C_14  and  C_15
   10  A    between atoms: C_15  and  C_16
   11  A    between atoms: C_16  and  C_17
   12  A    between atoms: C_17  and  C_18
   13  A    between atoms: N_20  and  C_21
   14  A    between atoms: C_21  and  C_22
   15  A    between atoms: C_25  and  O_26
   16  A    between atoms: O_26  and  C_27
   17  A    between atoms: C_28  and  O_29
   18  A    between atoms: C_32  and  O_33
                            x       y       z     vdW  Elec       q    Type
                         _______ _______ _______ _____ _____    ______ ____

>  <TORSDO>
F 16

>  <SCORE>
-5.375

>  <RMSD_LB>
6.521

>  <RMSD_UB>
8.807

$$$$
