CHEMBL3883635
 OpenBabel10162523443D

 27 27  0  0  1  0  0  0  0  0999 V2000
  134.3240  134.1510  153.0840 C   0  0  0  0  0  0  0  0  0  0  0  0
  133.9940  133.8470  154.2310 O   0  0  0  0  0  0  0  0  0  0  0  0
  135.7740  134.3920  152.7020 C   0  0  0  0  0  2  0  0  0  0  0  0
  136.2640  135.7700  153.1270 C   0  0  2  0  0  3  0  0  0  0  0  0
  135.2700  136.4190  153.9150 O   0  0  0  0  0  0  0  0  0  0  0  0
  135.6990  136.9510  154.6040 H   0  0  0  0  0  0  0  0  0  0  0  0
  136.6640  136.6460  151.9370 C   0  0  0  0  0  2  0  0  0  0  0  0
  136.8900  135.7930  150.6930 C   0  0  0  0  0  2  0  0  0  0  0  0
  136.9090  136.7970  148.4130 C   0  0  0  0  0  3  0  0  0  0  0  0
  136.2290  136.4060  149.4990 C   0  0  0  0  0  3  0  0  0  0  0  0
  136.2620  137.4350  147.2250 C   0  0  0  0  0  2  0  0  0  0  0  0
  136.6000  138.9210  147.1580 C   0  0  0  0  0  2  0  0  0  0  0  0
  137.8230  139.2270  148.0190 C   0  0  0  0  0  2  0  0  0  0  0  0
  138.8100  140.7640  149.7390 C   0  0  0  0  0  1  0  0  0  0  0  0
  137.5620  140.4060  148.9490 C   0  0  0  0  0  2  0  0  0  0  0  0
  133.2990  134.2740  151.9840 C   0  0  0  0  0  2  0  0  0  0  0  0
  133.6070  133.2810  150.8760 C   0  0  0  0  0  2  0  0  0  0  0  0
  133.5130  133.9160  149.5190 C   0  0  0  0  0  0  0  0  0  0  0  0
  133.0690  135.2350  149.3880 C   0  0  0  0  0  3  0  0  0  0  0  0
  132.9680  135.8160  148.1260 C   0  0  0  0  0  3  0  0  0  0  0  0
  133.3190  135.0920  146.9830 C   0  0  0  0  0  0  0  0  0  0  0  0
  133.7890  133.7770  147.0920 C   0  0  0  0  0  0  0  0  0  0  0  0
  133.8830  133.2040  148.3670 C   0  0  0  0  0  3  0  0  0  0  0  0
  133.1880  135.7050  145.7680 O   0  0  0  0  0  0  0  0  0  0  0  0
  133.8430  136.3060  145.4730 H   0  0  0  0  0  0  0  0  0  0  0  0
  134.1860  132.9280  146.0940 O   0  0  0  0  0  0  0  0  0  0  0  0
  135.5280  133.0230  145.6370 C   0  0  0  0  0  1  0  0  0  0  0  0
  1  2  2  0  0  0  0
  3  1  1  0  0  0  0
  3  4  1  0  0  0  0
  4  7  1  6  0  0  0
  4  5  1  0  0  0  0
  5  6  1  0  0  0  0
  8  7  1  0  0  0  0
  9 10  2  0  0  0  0
 10  8  1  0  0  0  0
 11  9  1  0  0  0  0
 12 11  1  0  0  0  0
 12 13  1  0  0  0  0
 13 15  1  0  0  0  0
 15 14  1  0  0  0  0
 16  1  1  0  0  0  0
 17 16  1  0  0  0  0
 18 17  1  0  0  0  0
 19 18  1  0  0  0  0
 20 19  2  0  0  0  0
 21 22  2  0  0  0  0
 21 20  1  0  0  0  0
 22 23  1  0  0  0  0
 23 18  2  0  0  0  0
 24 21  1  0  0  0  0
 25 24  1  0  0  0  0
 26 22  1  0  0  0  0
 27 26  1  0  0  0  0
M  END
>  <MODEL>
1

>  <REMARK>
 VINA RESULT:    -5.871      0.000      0.000
 INTER + INTRA:         -13.061
 INTER:                 -10.564
 INTRA:                  -2.497
 UNBOUND:                -2.386
  Name = CHEMBL3883635
  17 active torsions:
  status: ('A' for Active; 'I' for Inactive)
    1  A    between atoms: C_1  and  C_2
    2  A    between atoms: C_2  and  C_3
    3  A    between atoms: C_3  and  C_4
    4  A    between atoms: C_4  and  C_5
    5  A    between atoms: C_5  and  C_6
    6  A    between atoms: C_7  and  C_8
    7  A    between atoms: C_8  and  C_9
    8  A    between atoms: C_9  and  C_10
    9  A    between atoms: C_10  and  O_11
   10  A    between atoms: C_10  and  C_12
   11  A    between atoms: C_12  and  C_13
   12  A    between atoms: C_13  and  C_15
   13  A    between atoms: C_15  and  C_16
   14  A    between atoms: C_16  and  C_17
   15  A    between atoms: C_20  and  O_21
   16  A    between atoms: C_22  and  O_23
   17  A    between atoms: O_23  and  C_24
                            x       y       z     vdW  Elec       q    Type
                         _______ _______ _______ _____ _____    ______ ____

>  <TORSDO>
F 15

>  <SCORE>
-5.871

>  <RMSD_LB>
0.000

>  <RMSD_UB>
0.000

$$$$
CHEMBL3883635
 OpenBabel10162523443D

 27 27  0  0  1  0  0  0  0  0999 V2000
  135.0990  135.0520  154.1750 C   0  0  0  0  0  0  0  0  0  0  0  0
  134.5630  135.0420  155.2840 O   0  0  0  0  0  0  0  0  0  0  0  0
  135.7890  136.2900  153.6270 C   0  0  0  0  0  2  0  0  0  0  0  0
  136.9100  136.7790  154.5350 C   0  0  2  0  0  3  0  0  0  0  0  0
  136.3790  137.6170  155.5570 O   0  0  0  0  0  0  0  0  0  0  0  0
  136.4460  138.5450  155.2830 H   0  0  0  0  0  0  0  0  0  0  0  0
  138.0160  137.5060  153.7650 C   0  0  0  0  0  2  0  0  0  0  0  0
  137.7860  137.3950  152.2610 C   0  0  0  0  0  2  0  0  0  0  0  0
  140.2520  137.3920  151.9090 C   0  0  0  0  0  3  0  0  0  0  0  0
  139.0270  137.7500  151.5050 C   0  0  0  0  0  3  0  0  0  0  0  0
  141.5020  137.7650  151.1750 C   0  0  0  0  0  2  0  0  0  0  0  0
  142.7380  137.3980  151.9900 C   0  0  0  0  0  2  0  0  0  0  0  0
  142.5370  137.7720  153.4560 C   0  0  0  0  0  2  0  0  0  0  0  0
  144.0860  139.3230  154.6770 C   0  0  0  0  0  1  0  0  0  0  0  0
  142.9170  139.2270  153.7110 C   0  0  0  0  0  2  0  0  0  0  0  0
  135.1210  133.8190  153.3070 C   0  0  0  0  0  2  0  0  0  0  0  0
  135.7750  134.1370  151.9720 C   0  0  0  0  0  2  0  0  0  0  0  0
  134.7970  134.0370  150.8380 C   0  0  0  0  0  0  0  0  0  0  0  0
  133.4450  133.7920  151.0930 C   0  0  0  0  0  3  0  0  0  0  0  0
  132.5430  133.6850  150.0370 C   0  0  0  0  0  3  0  0  0  0  0  0
  132.9780  133.8310  148.7160 C   0  0  0  0  0  0  0  0  0  0  0  0
  134.3240  134.1000  148.4380 C   0  0  0  0  0  0  0  0  0  0  0  0
  135.2210  134.2020  149.5100 C   0  0  0  0  0  3  0  0  0  0  0  0
  132.0540  133.7020  147.7160 O   0  0  0  0  0  0  0  0  0  0  0  0
  131.3490  133.0910  147.8060 H   0  0  0  0  0  0  0  0  0  0  0  0
  134.9230  134.2820  147.2200 O   0  0  0  0  0  0  0  0  0  0  0  0
  135.6540  135.4830  147.0140 C   0  0  0  0  0  1  0  0  0  0  0  0
  1  2  2  0  0  0  0
  3  1  1  0  0  0  0
  4  3  1  6  0  0  0
  4  5  1  0  0  0  0
  6  5  1  0  0  0  0
  7  4  1  0  0  0  0
  8  7  1  0  0  0  0
 10  9  2  0  0  0  0
 10  8  1  0  0  0  0
 11  9  1  0  0  0  0
 11 12  1  0  0  0  0
 12 13  1  0  0  0  0
 13 15  1  0  0  0  0
 15 14  1  0  0  0  0
 16  1  1  0  0  0  0
 17 16  1  0  0  0  0
 18 19  1  0  0  0  0
 18 17  1  0  0  0  0
 20 19  2  0  0  0  0
 21 20  1  0  0  0  0
 22 21  2  0  0  0  0
 22 23  1  0  0  0  0
 23 18  2  0  0  0  0
 24 25  1  0  0  0  0
 24 21  1  0  0  0  0
 26 22  1  0  0  0  0
 27 26  1  0  0  0  0
M  END
>  <MODEL>
2

>  <REMARK>
 VINA RESULT:    -5.753      3.130      3.979
 INTER + INTRA:         -12.848
 INTER:                 -11.265
 INTRA:                  -1.582
 UNBOUND:                -2.386
  Name = CHEMBL3883635
  17 active torsions:
  status: ('A' for Active; 'I' for Inactive)
    1  A    between atoms: C_1  and  C_2
    2  A    between atoms: C_2  and  C_3
    3  A    between atoms: C_3  and  C_4
    4  A    between atoms: C_4  and  C_5
    5  A    between atoms: C_5  and  C_6
    6  A    between atoms: C_7  and  C_8
    7  A    between atoms: C_8  and  C_9
    8  A    between atoms: C_9  and  C_10
    9  A    between atoms: C_10  and  O_11
   10  A    between atoms: C_10  and  C_12
   11  A    between atoms: C_12  and  C_13
   12  A    between atoms: C_13  and  C_15
   13  A    between atoms: C_15  and  C_16
   14  A    between atoms: C_16  and  C_17
   15  A    between atoms: C_20  and  O_21
   16  A    between atoms: C_22  and  O_23
   17  A    between atoms: O_23  and  C_24
                            x       y       z     vdW  Elec       q    Type
                         _______ _______ _______ _____ _____    ______ ____

>  <TORSDO>
F 15

>  <SCORE>
-5.753

>  <RMSD_LB>
3.130

>  <RMSD_UB>
3.979

$$$$
CHEMBL3883635
 OpenBabel10162523443D

 27 27  0  0  1  0  0  0  0  0999 V2000
  134.0790  134.6530  153.6150 C   0  0  0  0  0  0  0  0  0  0  0  0
  134.2000  133.4310  153.7070 O   0  0  0  0  0  0  0  0  0  0  0  0
  134.0450  135.5520  154.8400 C   0  0  0  0  0  2  0  0  0  0  0  0
  135.1480  135.2170  155.8350 C   0  0  2  0  0  3  0  0  0  0  0  0
  134.5780  134.8550  157.0910 O   0  0  0  0  0  0  0  0  0  0  0  0
  134.7360  133.9130  157.2580 H   0  0  0  0  0  0  0  0  0  0  0  0
  136.1500  136.3610  156.0100 C   0  0  0  0  0  2  0  0  0  0  0  0
  137.3780  135.8870  156.7810 C   0  0  0  0  0  2  0  0  0  0  0  0
  138.5450  137.6960  155.5280 C   0  0  0  0  0  3  0  0  0  0  0  0
  138.5730  136.7220  156.4470 C   0  0  0  0  0  3  0  0  0  0  0  0
  139.7400  138.5200  155.1670 C   0  0  0  0  0  2  0  0  0  0  0  0
  140.3060  138.0900  153.8180 C   0  0  0  0  0  2  0  0  0  0  0  0
  139.4940  138.7050  152.6800 C   0  0  0  0  0  2  0  0  0  0  0  0
  137.6880  137.2600  151.7070 C   0  0  0  0  0  1  0  0  0  0  0  0
  139.1510  137.6640  151.6210 C   0  0  0  0  0  2  0  0  0  0  0  0
  133.9840  135.3290  152.2700 C   0  0  0  0  0  2  0  0  0  0  0  0
  135.0840  134.8160  151.3550 C   0  0  0  0  0  2  0  0  0  0  0  0
  134.5430  134.3980  150.0180 C   0  0  0  0  0  0  0  0  0  0  0  0
  134.2330  133.0580  149.7720 C   0  0  0  0  0  3  0  0  0  0  0  0
  133.7470  132.6710  148.5250 C   0  0  0  0  0  3  0  0  0  0  0  0
  133.5540  133.6180  147.5150 C   0  0  0  0  0  0  0  0  0  0  0  0
  133.8360  134.9710  147.7480 C   0  0  0  0  0  0  0  0  0  0  0  0
  134.3280  135.3450  149.0050 C   0  0  0  0  0  3  0  0  0  0  0  0
  133.0880  133.1830  146.3060 O   0  0  0  0  0  0  0  0  0  0  0  0
  132.2540  132.7590  146.2500 H   0  0  0  0  0  0  0  0  0  0  0  0
  133.7000  136.0290  146.8890 O   0  0  0  0  0  0  0  0  0  0  0  0
  132.5610  136.8650  147.0430 C   0  0  0  0  0  1  0  0  0  0  0  0
  1  2  2  0  0  0  0
  1  3  1  0  0  0  0
  4  3  1  6  0  0  0
  4  7  1  0  0  0  0
  4  5  1  0  0  0  0
  5  6  1  0  0  0  0
  7  8  1  0  0  0  0
  9 10  2  0  0  0  0
 10  8  1  0  0  0  0
 11  9  1  0  0  0  0
 12 11  1  0  0  0  0
 13 12  1  0  0  0  0
 15 14  1  0  0  0  0
 15 13  1  0  0  0  0
 16  1  1  0  0  0  0
 17 16  1  0  0  0  0
 18 17  1  0  0  0  0
 19 18  1  0  0  0  0
 20 19  2  0  0  0  0
 21 22  2  0  0  0  0
 21 20  1  0  0  0  0
 22 23  1  0  0  0  0
 23 18  2  0  0  0  0
 24 21  1  0  0  0  0
 25 24  1  0  0  0  0
 26 27  1  0  0  0  0
 26 22  1  0  0  0  0
M  END
>  <MODEL>
3

>  <REMARK>
 VINA RESULT:    -5.669      2.524      4.316
 INTER + INTRA:         -12.694
 INTER:                 -11.395
 INTRA:                  -1.298
 UNBOUND:                -2.386
  Name = CHEMBL3883635
  17 active torsions:
  status: ('A' for Active; 'I' for Inactive)
    1  A    between atoms: C_1  and  C_2
    2  A    between atoms: C_2  and  C_3
    3  A    between atoms: C_3  and  C_4
    4  A    between atoms: C_4  and  C_5
    5  A    between atoms: C_5  and  C_6
    6  A    between atoms: C_7  and  C_8
    7  A    between atoms: C_8  and  C_9
    8  A    between atoms: C_9  and  C_10
    9  A    between atoms: C_10  and  O_11
   10  A    between atoms: C_10  and  C_12
   11  A    between atoms: C_12  and  C_13
   12  A    between atoms: C_13  and  C_15
   13  A    between atoms: C_15  and  C_16
   14  A    between atoms: C_16  and  C_17
   15  A    between atoms: C_20  and  O_21
   16  A    between atoms: C_22  and  O_23
   17  A    between atoms: O_23  and  C_24
                            x       y       z     vdW  Elec       q    Type
                         _______ _______ _______ _____ _____    ______ ____

>  <TORSDO>
F 15

>  <SCORE>
-5.669

>  <RMSD_LB>
2.524

>  <RMSD_UB>
4.316

$$$$
CHEMBL3883635
 OpenBabel10162523443D

 27 27  0  0  1  0  0  0  0  0999 V2000
  134.8490  135.9750  152.8220 C   0  0  0  0  0  0  0  0  0  0  0  0
  133.9560  136.5610  153.4370 O   0  0  0  0  0  0  0  0  0  0  0  0
  134.6860  135.5610  151.3700 C   0  0  0  0  0  2  0  0  0  0  0  0
  133.6800  134.4290  151.2000 C   0  0  2  0  0  3  0  0  0  0  0  0
  133.5700  133.6880  152.4120 O   0  0  0  0  0  0  0  0  0  0  0  0
  133.8630  132.7760  152.2610 H   0  0  0  0  0  0  0  0  0  0  0  0
  134.0310  133.5010  150.0330 C   0  0  0  0  0  2  0  0  0  0  0  0
  132.8480  133.3680  149.0790 C   0  0  0  0  0  2  0  0  0  0  0  0
  133.8780  134.9370  147.4410 C   0  0  0  0  0  3  0  0  0  0  0  0
  133.2280  133.7940  147.6960 C   0  0  0  0  0  3  0  0  0  0  0  0
  134.2390  135.3870  146.0600 C   0  0  0  0  0  2  0  0  0  0  0  0
  134.8380  134.2380  145.2560 C   0  0  0  0  0  2  0  0  0  0  0  0
  136.3450  134.1570  145.4880 C   0  0  0  0  0  2  0  0  0  0  0  0
  136.2390  131.9200  146.6200 C   0  0  0  0  0  1  0  0  0  0  0  0
  136.8300  132.7120  145.4660 C   0  0  0  0  0  2  0  0  0  0  0  0
  136.1710  135.6610  153.4770 C   0  0  0  0  0  2  0  0  0  0  0  0
  135.9350  135.0570  154.8530 C   0  0  0  0  0  2  0  0  0  0  0  0
  136.5240  135.9070  155.9400 C   0  0  0  0  0  0  0  0  0  0  0  0
  136.0230  135.8310  157.2430 C   0  0  0  0  0  3  0  0  0  0  0  0
  136.5610  136.6330  158.2460 C   0  0  0  0  0  3  0  0  0  0  0  0
  137.6110  137.5120  157.9640 C   0  0  0  0  0  0  0  0  0  0  0  0
  138.1440  137.5880  156.6700 C   0  0  0  0  0  0  0  0  0  0  0  0
  137.5910  136.7780  155.6700 C   0  0  0  0  0  3  0  0  0  0  0  0
  138.0930  138.2870  158.9810 O   0  0  0  0  0  0  0  0  0  0  0  0
  138.2240  139.2060  158.8490 H   0  0  0  0  0  0  0  0  0  0  0  0
  139.1690  138.3750  156.2160 O   0  0  0  0  0  0  0  0  0  0  0  0
  139.2490  138.6180  154.8190 C   0  0  0  0  0  1  0  0  0  0  0  0
  1  2  2  0  0  0  0
  1 16  1  0  0  0  0
  3  1  1  0  0  0  0
  4  7  1  6  0  0  0
  4  3  1  0  0  0  0
  4  5  1  0  0  0  0
  6  5  1  0  0  0  0
  8  7  1  0  0  0  0
  9 10  2  0  0  0  0
 10  8  1  0  0  0  0
 11  9  1  0  0  0  0
 12 13  1  0  0  0  0
 12 11  1  0  0  0  0
 15 13  1  0  0  0  0
 15 14  1  0  0  0  0
 16 17  1  0  0  0  0
 17 18  1  0  0  0  0
 18 19  1  0  0  0  0
 19 20  2  0  0  0  0
 21 20  1  0  0  0  0
 21 24  1  0  0  0  0
 22 21  2  0  0  0  0
 23 18  2  0  0  0  0
 23 22  1  0  0  0  0
 25 24  1  0  0  0  0
 26 22  1  0  0  0  0
 27 26  1  0  0  0  0
M  END
>  <MODEL>
4

>  <REMARK>
 VINA RESULT:    -5.634      3.293      7.687
 INTER + INTRA:         -12.630
 INTER:                 -11.115
 INTRA:                  -1.515
 UNBOUND:                -2.386
  Name = CHEMBL3883635
  17 active torsions:
  status: ('A' for Active; 'I' for Inactive)
    1  A    between atoms: C_1  and  C_2
    2  A    between atoms: C_2  and  C_3
    3  A    between atoms: C_3  and  C_4
    4  A    between atoms: C_4  and  C_5
    5  A    between atoms: C_5  and  C_6
    6  A    between atoms: C_7  and  C_8
    7  A    between atoms: C_8  and  C_9
    8  A    between atoms: C_9  and  C_10
    9  A    between atoms: C_10  and  O_11
   10  A    between atoms: C_10  and  C_12
   11  A    between atoms: C_12  and  C_13
   12  A    between atoms: C_13  and  C_15
   13  A    between atoms: C_15  and  C_16
   14  A    between atoms: C_16  and  C_17
   15  A    between atoms: C_20  and  O_21
   16  A    between atoms: C_22  and  O_23
   17  A    between atoms: O_23  and  C_24
                            x       y       z     vdW  Elec       q    Type
                         _______ _______ _______ _____ _____    ______ ____

>  <TORSDO>
F 15

>  <SCORE>
-5.634

>  <RMSD_LB>
3.293

>  <RMSD_UB>
7.687

$$$$
CHEMBL3883635
 OpenBabel10162523443D

 27 27  0  0  1  0  0  0  0  0999 V2000
  139.2170  138.7570  154.4750 C   0  0  0  0  0  0  0  0  0  0  0  0
  139.9490  139.6490  154.9060 O   0  0  0  0  0  0  0  0  0  0  0  0
  138.0790  138.1830  155.3010 C   0  0  0  0  0  2  0  0  0  0  0  0
  138.5760  137.3930  156.5040 C   0  0  2  0  0  3  0  0  0  0  0  0
  140.0000  137.4030  156.5390 O   0  0  0  0  0  0  0  0  0  0  0  0
  140.3010  137.9320  157.2950 H   0  0  0  0  0  0  0  0  0  0  0  0
  138.0490  135.9550  156.5230 C   0  0  0  0  0  2  0  0  0  0  0  0
  136.8440  135.8370  157.4520 C   0  0  0  0  0  2  0  0  0  0  0  0
  135.5770  135.4480  155.3420 C   0  0  0  0  0  3  0  0  0  0  0  0
  135.6080  135.5000  156.6800 C   0  0  0  0  0  3  0  0  0  0  0  0
  134.3400  135.1390  154.5600 C   0  0  0  0  0  2  0  0  0  0  0  0
  134.5960  134.0090  153.5680 C   0  0  0  0  0  2  0  0  0  0  0  0
  135.8970  134.2550  152.8070 C   0  0  0  0  0  2  0  0  0  0  0  0
  136.6460  135.1630  150.5910 C   0  0  0  0  0  1  0  0  0  0  0  0
  135.7370  135.3790  151.7900 C   0  0  0  0  0  2  0  0  0  0  0  0
  139.3990  138.2010  153.0850 C   0  0  0  0  0  2  0  0  0  0  0  0
  140.8540  137.8130  152.8690 C   0  0  0  0  0  2  0  0  0  0  0  0
  141.1040  137.3570  151.4610 C   0  0  0  0  0  0  0  0  0  0  0  0
  142.3880  136.9770  151.0620 C   0  0  0  0  0  3  0  0  0  0  0  0
  142.6190  136.5690  149.7500 C   0  0  0  0  0  3  0  0  0  0  0  0
  141.5710  136.5260  148.8260 C   0  0  0  0  0  0  0  0  0  0  0  0
  140.2720  136.8810  149.2110 C   0  0  0  0  0  0  0  0  0  0  0  0
  140.0540  137.2920  150.5320 C   0  0  0  0  0  3  0  0  0  0  0  0
  141.8550  136.1330  147.5480 O   0  0  0  0  0  0  0  0  0  0  0  0
  141.3980  136.5180  146.8270 H   0  0  0  0  0  0  0  0  0  0  0  0
  139.1310  136.8900  148.4530 O   0  0  0  0  0  0  0  0  0  0  0  0
  138.2310  137.9760  148.6220 C   0  0  0  0  0  1  0  0  0  0  0  0
  1  2  2  0  0  0  0
  1  3  1  0  0  0  0
  4  3  1  6  0  0  0
  4  7  1  0  0  0  0
  4  5  1  0  0  0  0
  5  6  1  0  0  0  0
  7  8  1  0  0  0  0
  9 10  2  0  0  0  0
 10  8  1  0  0  0  0
 11  9  1  0  0  0  0
 12 11  1  0  0  0  0
 13 12  1  0  0  0  0
 14 15  1  0  0  0  0
 15 13  1  0  0  0  0
 16  1  1  0  0  0  0
 17 16  1  0  0  0  0
 18 17  1  0  0  0  0
 19 18  1  0  0  0  0
 20 19  2  0  0  0  0
 21 22  2  0  0  0  0
 21 20  1  0  0  0  0
 22 23  1  0  0  0  0
 23 18  2  0  0  0  0
 24 21  1  0  0  0  0
 25 24  1  0  0  0  0
 26 27  1  0  0  0  0
 26 22  1  0  0  0  0
M  END
>  <MODEL>
5

>  <REMARK>
 VINA RESULT:    -5.570      4.232      7.404
 INTER + INTRA:         -12.514
 INTER:                 -10.813
 INTRA:                  -1.701
 UNBOUND:                -2.386
  Name = CHEMBL3883635
  17 active torsions:
  status: ('A' for Active; 'I' for Inactive)
    1  A    between atoms: C_1  and  C_2
    2  A    between atoms: C_2  and  C_3
    3  A    between atoms: C_3  and  C_4
    4  A    between atoms: C_4  and  C_5
    5  A    between atoms: C_5  and  C_6
    6  A    between atoms: C_7  and  C_8
    7  A    between atoms: C_8  and  C_9
    8  A    between atoms: C_9  and  C_10
    9  A    between atoms: C_10  and  O_11
   10  A    between atoms: C_10  and  C_12
   11  A    between atoms: C_12  and  C_13
   12  A    between atoms: C_13  and  C_15
   13  A    between atoms: C_15  and  C_16
   14  A    between atoms: C_16  and  C_17
   15  A    between atoms: C_20  and  O_21
   16  A    between atoms: C_22  and  O_23
   17  A    between atoms: O_23  and  C_24
                            x       y       z     vdW  Elec       q    Type
                         _______ _______ _______ _____ _____    ______ ____

>  <TORSDO>
F 15

>  <SCORE>
-5.570

>  <RMSD_LB>
4.232

>  <RMSD_UB>
7.404

$$$$
CHEMBL3883635
 OpenBabel10162523443D

 27 27  0  0  1  0  0  0  0  0999 V2000
  133.4670  134.6130  150.6600 C   0  0  0  0  0  0  0  0  0  0  0  0
  132.9730  135.6990  150.9650 O   0  0  0  0  0  0  0  0  0  0  0  0
  132.7460  133.6290  149.7540 C   0  0  0  0  0  2  0  0  0  0  0  0
  133.0530  133.8660  148.2810 C   0  0  2  0  0  3  0  0  0  0  0  0
  131.8810  133.6530  147.4990 O   0  0  0  0  0  0  0  0  0  0  0  0
  132.0980  133.0890  146.7390 H   0  0  0  0  0  0  0  0  0  0  0  0
  134.2050  132.9960  147.7720 C   0  0  0  0  0  2  0  0  0  0  0  0
  135.4270  133.8530  147.4570 C   0  0  0  0  0  2  0  0  0  0  0  0
  136.2260  131.9610  146.0470 C   0  0  0  0  0  3  0  0  0  0  0  0
  136.2070  133.2720  146.3210 C   0  0  0  0  0  3  0  0  0  0  0  0
  137.0240  131.3660  144.9300 C   0  0  0  0  0  2  0  0  0  0  0  0
  136.4250  131.7400  143.5780 C   0  0  0  0  0  2  0  0  0  0  0  0
  137.5320  131.9950  142.5590 C   0  0  0  0  0  2  0  0  0  0  0  0
  138.0810  134.3800  143.1140 C   0  0  0  0  0  1  0  0  0  0  0  0
  137.5090  133.4380  142.0670 C   0  0  0  0  0  2  0  0  0  0  0  0
  134.8340  134.2100  151.1540 C   0  0  0  0  0  2  0  0  0  0  0  0
  135.3940  135.2920  152.0640 C   0  0  0  0  0  2  0  0  0  0  0  0
  136.5890  135.9650  151.4560 C   0  0  0  0  0  0  0  0  0  0  0  0
  137.2780  136.9530  152.1650 C   0  0  0  0  0  3  0  0  0  0  0  0
  138.3770  137.5870  151.5900 C   0  0  0  0  0  3  0  0  0  0  0  0
  138.8080  137.2350  150.3080 C   0  0  0  0  0  0  0  0  0  0  0  0
  138.1470  136.2310  149.5880 C   0  0  0  0  0  0  0  0  0  0  0  0
  137.0410  135.6040  150.1770 C   0  0  0  0  0  3  0  0  0  0  0  0
  139.8830  137.8980  149.7850 O   0  0  0  0  0  0  0  0  0  0  0  0
  140.7410  137.5290  149.8570 H   0  0  0  0  0  0  0  0  0  0  0  0
  138.4310  135.7520  148.3380 O   0  0  0  0  0  0  0  0  0  0  0  0
  139.4090  134.7260  148.2270 C   0  0  0  0  0  1  0  0  0  0  0  0
  1  2  2  0  0  0  0
  1 16  1  0  0  0  0
  3  1  1  0  0  0  0
  4  7  1  6  0  0  0
  4  3  1  0  0  0  0
  5  4  1  0  0  0  0
  6  5  1  0  0  0  0
  8  7  1  0  0  0  0
  9 10  2  0  0  0  0
 10  8  1  0  0  0  0
 11  9  1  0  0  0  0
 12 11  1  0  0  0  0
 13 12  1  0  0  0  0
 15 13  1  0  0  0  0
 15 14  1  0  0  0  0
 16 17  1  0  0  0  0
 18 17  1  0  0  0  0
 18 19  1  0  0  0  0
 20 19  2  0  0  0  0
 21 20  1  0  0  0  0
 22 23  1  0  0  0  0
 22 21  2  0  0  0  0
 23 18  2  0  0  0  0
 24 25  1  0  0  0  0
 24 21  1  0  0  0  0
 26 22  1  0  0  0  0
 27 26  1  0  0  0  0
M  END
>  <MODEL>
6

>  <REMARK>
 VINA RESULT:    -5.490      2.762      6.100
 INTER + INTRA:         -12.368
 INTER:                 -10.758
 INTRA:                  -1.611
 UNBOUND:                -2.386
  Name = CHEMBL3883635
  17 active torsions:
  status: ('A' for Active; 'I' for Inactive)
    1  A    between atoms: C_1  and  C_2
    2  A    between atoms: C_2  and  C_3
    3  A    between atoms: C_3  and  C_4
    4  A    between atoms: C_4  and  C_5
    5  A    between atoms: C_5  and  C_6
    6  A    between atoms: C_7  and  C_8
    7  A    between atoms: C_8  and  C_9
    8  A    between atoms: C_9  and  C_10
    9  A    between atoms: C_10  and  O_11
   10  A    between atoms: C_10  and  C_12
   11  A    between atoms: C_12  and  C_13
   12  A    between atoms: C_13  and  C_15
   13  A    between atoms: C_15  and  C_16
   14  A    between atoms: C_16  and  C_17
   15  A    between atoms: C_20  and  O_21
   16  A    between atoms: C_22  and  O_23
   17  A    between atoms: O_23  and  C_24
                            x       y       z     vdW  Elec       q    Type
                         _______ _______ _______ _____ _____    ______ ____

>  <TORSDO>
F 15

>  <SCORE>
-5.490

>  <RMSD_LB>
2.762

>  <RMSD_UB>
6.100

$$$$
CHEMBL3883635
 OpenBabel10162523443D

 27 27  0  0  1  0  0  0  0  0999 V2000
  134.7430  135.9520  153.2690 C   0  0  0  0  0  0  0  0  0  0  0  0
  134.0580  136.4240  154.1780 O   0  0  0  0  0  0  0  0  0  0  0  0
  134.1740  135.6970  151.8840 C   0  0  0  0  0  2  0  0  0  0  0  0
  133.6140  134.2880  151.7380 C   0  0  2  0  0  3  0  0  0  0  0  0
  133.6030  133.6340  153.0040 O   0  0  0  0  0  0  0  0  0  0  0  0
  134.1900  132.8620  152.9750 H   0  0  0  0  0  0  0  0  0  0  0  0
  134.3820  133.4530  150.7090 C   0  0  0  0  0  2  0  0  0  0  0  0
  133.5330  133.2220  149.4630 C   0  0  0  0  0  2  0  0  0  0  0  0
  134.5640  133.4700  147.2090 C   0  0  0  0  0  3  0  0  0  0  0  0
  134.3770  132.7500  148.3230 C   0  0  0  0  0  3  0  0  0  0  0  0
  135.3840  132.9970  146.0510 C   0  0  0  0  0  2  0  0  0  0  0  0
  136.7720  132.5650  146.5120 C   0  0  0  0  0  2  0  0  0  0  0  0
  137.6860  133.7800  146.6560 C   0  0  0  0  0  2  0  0  0  0  0  0
  139.2270  135.0400  148.1840 C   0  0  0  0  0  1  0  0  0  0  0  0
  138.3910  133.7830  148.0080 C   0  0  0  0  0  2  0  0  0  0  0  0
  136.2000  135.6250  153.4790 C   0  0  0  0  0  2  0  0  0  0  0  0
  136.8390  136.6650  154.3850 C   0  0  0  0  0  2  0  0  0  0  0  0
  137.8860  137.4630  153.6630 C   0  0  0  0  0  0  0  0  0  0  0  0
  138.8250  138.2070  154.3830 C   0  0  0  0  0  3  0  0  0  0  0  0
  139.7850  138.9590  153.7090 C   0  0  0  0  0  3  0  0  0  0  0  0
  139.8260  138.9670  152.3120 C   0  0  0  0  0  0  0  0  0  0  0  0
  138.9090  138.2100  151.5710 C   0  0  0  0  0  0  0  0  0  0  0  0
  137.9470  137.4610  152.2610 C   0  0  0  0  0  3  0  0  0  0  0  0
  140.7790  139.7330  151.7010 O   0  0  0  0  0  0  0  0  0  0  0  0
  140.5420  140.3000  150.9940 H   0  0  0  0  0  0  0  0  0  0  0  0
  138.8070  138.0890  150.2110 O   0  0  0  0  0  0  0  0  0  0  0  0
  137.5040  138.0170  149.6480 C   0  0  0  0  0  1  0  0  0  0  0  0
  1 16  1  0  0  0  0
  1  2  2  0  0  0  0
  3  1  1  0  0  0  0
  4  7  1  6  0  0  0
  4  3  1  0  0  0  0
  4  5  1  0  0  0  0
  6  5  1  0  0  0  0
  8  7  1  0  0  0  0
  9 10  2  0  0  0  0
 10  8  1  0  0  0  0
 11 12  1  0  0  0  0
 11  9  1  0  0  0  0
 12 13  1  0  0  0  0
 13 15  1  0  0  0  0
 15 14  1  0  0  0  0
 16 17  1  0  0  0  0
 18 19  1  0  0  0  0
 18 17  1  0  0  0  0
 20 19  2  0  0  0  0
 21 20  1  0  0  0  0
 22 23  1  0  0  0  0
 22 21  2  0  0  0  0
 23 18  2  0  0  0  0
 24 21  1  0  0  0  0
 25 24  1  0  0  0  0
 26 22  1  0  0  0  0
 27 26  1  0  0  0  0
M  END
>  <MODEL>
7

>  <REMARK>
 VINA RESULT:    -5.366      2.721      6.182
 INTER + INTRA:         -12.143
 INTER:                 -10.650
 INTRA:                  -1.494
 UNBOUND:                -2.386
  Name = CHEMBL3883635
  17 active torsions:
  status: ('A' for Active; 'I' for Inactive)
    1  A    between atoms: C_1  and  C_2
    2  A    between atoms: C_2  and  C_3
    3  A    between atoms: C_3  and  C_4
    4  A    between atoms: C_4  and  C_5
    5  A    between atoms: C_5  and  C_6
    6  A    between atoms: C_7  and  C_8
    7  A    between atoms: C_8  and  C_9
    8  A    between atoms: C_9  and  C_10
    9  A    between atoms: C_10  and  O_11
   10  A    between atoms: C_10  and  C_12
   11  A    between atoms: C_12  and  C_13
   12  A    between atoms: C_13  and  C_15
   13  A    between atoms: C_15  and  C_16
   14  A    between atoms: C_16  and  C_17
   15  A    between atoms: C_20  and  O_21
   16  A    between atoms: C_22  and  O_23
   17  A    between atoms: O_23  and  C_24
                            x       y       z     vdW  Elec       q    Type
                         _______ _______ _______ _____ _____    ______ ____

>  <TORSDO>
F 15

>  <SCORE>
-5.366

>  <RMSD_LB>
2.721

>  <RMSD_UB>
6.182

$$$$
CHEMBL3883635
 OpenBabel10162523443D

 27 27  0  0  1  0  0  0  0  0999 V2000
  136.0110  131.6000  144.1750 C   0  0  0  0  0  0  0  0  0  0  0  0
  134.9030  131.4050  143.6750 O   0  0  0  0  0  0  0  0  0  0  0  0
  136.2170  131.6420  145.6800 C   0  0  0  0  0  2  0  0  0  0  0  0
  137.0360  132.8480  146.1190 C   0  0  2  0  0  3  0  0  0  0  0  0
  137.9620  132.4670  147.1330 O   0  0  0  0  0  0  0  0  0  0  0  0
  137.8880  133.0760  147.8850 H   0  0  0  0  0  0  0  0  0  0  0  0
  136.1610  134.0090  146.6010 C   0  0  0  0  0  2  0  0  0  0  0  0
  134.6840  133.6920  146.3920 C   0  0  0  0  0  2  0  0  0  0  0  0
  133.6460  133.1910  148.6000 C   0  0  0  0  0  3  0  0  0  0  0  0
  133.8840  134.0530  147.6030 C   0  0  0  0  0  3  0  0  0  0  0  0
  132.8260  133.5320  149.8040 C   0  0  0  0  0  2  0  0  0  0  0  0
  133.6300  133.3280  151.0830 C   0  0  0  0  0  2  0  0  0  0  0  0
  134.3900  134.6020  151.4420 C   0  0  0  0  0  2  0  0  0  0  0  0
  136.6270  134.7550  150.3140 C   0  0  0  0  0  1  0  0  0  0  0  0
  135.8860  134.3350  151.5730 C   0  0  0  0  0  2  0  0  0  0  0  0
  137.2360  131.7820  143.3140 C   0  0  0  0  0  2  0  0  0  0  0  0
  136.9880  132.8770  142.2890 C   0  0  0  0  0  2  0  0  0  0  0  0
  137.0650  134.2430  142.9070 C   0  0  0  0  0  0  0  0  0  0  0  0
  135.9180  135.0360  143.0070 C   0  0  0  0  0  3  0  0  0  0  0  0
  135.9960  136.3090  143.5660 C   0  0  0  0  0  3  0  0  0  0  0  0
  137.2150  136.8010  144.0420 C   0  0  0  0  0  0  0  0  0  0  0  0
  138.3720  136.0140  143.9730 C   0  0  0  0  0  0  0  0  0  0  0  0
  138.2800  134.7370  143.4050 C   0  0  0  0  0  3  0  0  0  0  0  0
  137.2390  138.0620  144.5680 O   0  0  0  0  0  0  0  0  0  0  0  0
  137.0560  138.8010  144.0230 H   0  0  0  0  0  0  0  0  0  0  0  0
  139.6380  136.3230  144.3930 O   0  0  0  0  0  0  0  0  0  0  0  0
  140.0420  135.8630  145.6760 C   0  0  0  0  0  1  0  0  0  0  0  0
  1  3  1  0  0  0  0
  2  1  2  0  0  0  0
  4  3  1  1  0  0  0
  4  7  1  0  0  0  0
  4  5  1  0  0  0  0
  5  6  1  0  0  0  0
  8  7  1  0  0  0  0
  8 10  1  0  0  0  0
  9 11  1  0  0  0  0
 10  9  2  0  0  0  0
 11 12  1  0  0  0  0
 12 13  1  0  0  0  0
 13 15  1  0  0  0  0
 14 15  1  0  0  0  0
 16  1  1  0  0  0  0
 17 18  1  0  0  0  0
 17 16  1  0  0  0  0
 18 19  2  0  0  0  0
 18 23  1  0  0  0  0
 19 20  1  0  0  0  0
 20 21  2  0  0  0  0
 21 24  1  0  0  0  0
 22 21  1  0  0  0  0
 22 26  1  0  0  0  0
 23 22  2  0  0  0  0
 25 24  1  0  0  0  0
 26 27  1  0  0  0  0
M  END
>  <MODEL>
8

>  <REMARK>
 VINA RESULT:    -5.238      3.655      7.035
 INTER + INTRA:         -11.910
 INTER:                  -9.721
 INTRA:                  -2.189
 UNBOUND:                -2.386
  Name = CHEMBL3883635
  17 active torsions:
  status: ('A' for Active; 'I' for Inactive)
    1  A    between atoms: C_1  and  C_2
    2  A    between atoms: C_2  and  C_3
    3  A    between atoms: C_3  and  C_4
    4  A    between atoms: C_4  and  C_5
    5  A    between atoms: C_5  and  C_6
    6  A    between atoms: C_7  and  C_8
    7  A    between atoms: C_8  and  C_9
    8  A    between atoms: C_9  and  C_10
    9  A    between atoms: C_10  and  O_11
   10  A    between atoms: C_10  and  C_12
   11  A    between atoms: C_12  and  C_13
   12  A    between atoms: C_13  and  C_15
   13  A    between atoms: C_15  and  C_16
   14  A    between atoms: C_16  and  C_17
   15  A    between atoms: C_20  and  O_21
   16  A    between atoms: C_22  and  O_23
   17  A    between atoms: O_23  and  C_24
                            x       y       z     vdW  Elec       q    Type
                         _______ _______ _______ _____ _____    ______ ____

>  <TORSDO>
F 15

>  <SCORE>
-5.238

>  <RMSD_LB>
3.655

>  <RMSD_UB>
7.035

$$$$
CHEMBL3883635
 OpenBabel10162523443D

 27 27  0  0  1  0  0  0  0  0999 V2000
  135.2370  135.9290  152.3570 C   0  0  0  0  0  0  0  0  0  0  0  0
  135.3510  136.2630  153.5370 O   0  0  0  0  0  0  0  0  0  0  0  0
  133.8790  135.7150  151.7110 C   0  0  0  0  0  2  0  0  0  0  0  0
  133.3850  134.2820  151.8620 C   0  0  2  0  0  3  0  0  0  0  0  0
  133.9540  133.6900  153.0270 O   0  0  0  0  0  0  0  0  0  0  0  0
  134.5110  132.9390  152.7690 H   0  0  0  0  0  0  0  0  0  0  0  0
  133.6780  133.4250  150.6270 C   0  0  0  0  0  2  0  0  0  0  0  0
  132.7220  133.7750  149.4910 C   0  0  0  0  0  2  0  0  0  0  0  0
  133.6840  134.4490  147.2940 C   0  0  0  0  0  3  0  0  0  0  0  0
  133.3450  133.4870  148.1620 C   0  0  0  0  0  3  0  0  0  0  0  0
  134.2830  134.1720  145.9510 C   0  0  0  0  0  2  0  0  0  0  0  0
  135.5890  133.3990  146.0910 C   0  0  0  0  0  2  0  0  0  0  0  0
  136.6660  134.2830  146.7150 C   0  0  0  0  0  2  0  0  0  0  0  0
  138.7640  134.3340  148.0910 C   0  0  0  0  0  1  0  0  0  0  0  0
  137.7110  133.4480  147.4470 C   0  0  0  0  0  2  0  0  0  0  0  0
  136.4480  135.7400  151.4780 C   0  0  0  0  0  2  0  0  0  0  0  0
  137.2710  137.0180  151.4490 C   0  0  0  0  0  2  0  0  0  0  0  0
  137.6460  137.4050  150.0480 C   0  0  0  0  0  0  0  0  0  0  0  0
  136.6620  137.5250  149.0630 C   0  0  0  0  0  3  0  0  0  0  0  0
  137.0150  137.8690  147.7610 C   0  0  0  0  0  3  0  0  0  0  0  0
  138.3520  138.1070  147.4290 C   0  0  0  0  0  0  0  0  0  0  0  0
  139.3520  138.0160  148.4050 C   0  0  0  0  0  0  0  0  0  0  0  0
  138.9830  137.6660  149.7100 C   0  0  0  0  0  3  0  0  0  0  0  0
  138.6460  138.4270  146.1330 O   0  0  0  0  0  0  0  0  0  0  0  0
  139.3670  138.9950  145.9420 H   0  0  0  0  0  0  0  0  0  0  0  0
  140.6990  138.2220  148.2670 O   0  0  0  0  0  0  0  0  0  0  0  0
  141.5760  137.4290  149.0550 C   0  0  0  0  0  1  0  0  0  0  0  0
  1  2  2  0  0  0  0
  3  4  1  0  0  0  0
  3  1  1  0  0  0  0
  4  7  1  6  0  0  0
  4  5  1  0  0  0  0
  6  5  1  0  0  0  0
  8  7  1  0  0  0  0
  9 10  2  0  0  0  0
 10  8  1  0  0  0  0
 11 12  1  0  0  0  0
 11  9  1  0  0  0  0
 12 13  1  0  0  0  0
 13 15  1  0  0  0  0
 15 14  1  0  0  0  0
 16  1  1  0  0  0  0
 17 16  1  0  0  0  0
 18 17  1  0  0  0  0
 19 18  2  0  0  0  0
 20 19  1  0  0  0  0
 21 20  2  0  0  0  0
 21 22  1  0  0  0  0
 22 23  2  0  0  0  0
 23 18  1  0  0  0  0
 24 21  1  0  0  0  0
 25 24  1  0  0  0  0
 26 22  1  0  0  0  0
 26 27  1  0  0  0  0
M  END
>  <MODEL>
9

>  <REMARK>
 VINA RESULT:    -5.168      2.617      5.343
 INTER + INTRA:         -11.783
 INTER:                  -9.397
 INTRA:                  -2.386
 UNBOUND:                -2.386
  Name = CHEMBL3883635
  17 active torsions:
  status: ('A' for Active; 'I' for Inactive)
    1  A    between atoms: C_1  and  C_2
    2  A    between atoms: C_2  and  C_3
    3  A    between atoms: C_3  and  C_4
    4  A    between atoms: C_4  and  C_5
    5  A    between atoms: C_5  and  C_6
    6  A    between atoms: C_7  and  C_8
    7  A    between atoms: C_8  and  C_9
    8  A    between atoms: C_9  and  C_10
    9  A    between atoms: C_10  and  O_11
   10  A    between atoms: C_10  and  C_12
   11  A    between atoms: C_12  and  C_13
   12  A    between atoms: C_13  and  C_15
   13  A    between atoms: C_15  and  C_16
   14  A    between atoms: C_16  and  C_17
   15  A    between atoms: C_20  and  O_21
   16  A    between atoms: C_22  and  O_23
   17  A    between atoms: O_23  and  C_24
                            x       y       z     vdW  Elec       q    Type
                         _______ _______ _______ _____ _____    ______ ____

>  <TORSDO>
F 15

>  <SCORE>
-5.168

>  <RMSD_LB>
2.617

>  <RMSD_UB>
5.343

$$$$
