CHEMBL294199
 OpenBabel10172500063D

 24 24  0  0  0  0  0  0  0  0999 V2000
  135.8110  134.6230  152.1900 N   0  0  0  0  0  0  0  0  0  0  0  0
  135.0680  135.4070  153.0290 C   0  0  0  0  0  0  0  0  0  0  0  0
  134.5360  136.4700  152.6800 O   0  0  0  0  0  0  0  0  0  0  0  0
  136.2010  133.7850  152.5330 H   0  0  0  0  0  0  0  0  0  0  0  0
  136.0400  134.9970  150.8090 C   0  0  0  0  0  2  0  0  0  0  0  0
  133.2940  135.1270  148.1130 C   0  0  0  0  0  0  0  0  0  0  0  0
  134.3440  135.5060  148.9660 C   0  0  0  0  0  3  0  0  0  0  0  0
  134.9260  134.5930  149.8680 C   0  0  0  0  0  0  0  0  0  0  0  0
  134.4150  133.2920  149.9140 C   0  0  0  0  0  3  0  0  0  0  0  0
  133.3690  132.8980  149.0740 C   0  0  0  0  0  3  0  0  0  0  0  0
  132.8160  133.8170  148.1790 C   0  0  0  0  0  0  0  0  0  0  0  0
  132.8580  137.3590  147.4050 C   0  0  0  0  0  1  0  0  0  0  0  0
  132.6970  135.9620  147.2010 O   0  0  0  0  0  0  0  0  0  0  0  0
  131.7910  133.4300  147.3570 O   0  0  0  0  0  0  0  0  0  0  0  0
  131.1520  134.0580  147.0780 H   0  0  0  0  0  0  0  0  0  0  0  0
  134.9540  134.8510  154.4330 C   0  0  0  0  0  2  0  0  0  0  0  0
  135.4630  135.8450  155.4700 C   0  0  0  0  0  2  0  0  0  0  0  0
  136.9470  136.1660  155.2810 C   0  0  0  0  0  2  0  0  0  0  0  0
  137.7310  135.8010  156.5390 C   0  0  0  0  0  2  0  0  0  0  0  0
  136.9210  136.0390  157.7790 C   0  0  0  0  0  3  0  0  0  0  0  0
  136.4100  135.0450  158.5210 C   0  0  0  0  0  3  0  0  0  0  0  0
  135.5680  135.2780  159.7510 C   0  0  0  0  0  3  0  0  0  0  0  0
  135.6190  136.7450  160.1820 C   0  0  0  0  0  1  0  0  0  0  0  0
  134.1200  134.8570  159.5010 C   0  0  0  0  0  1  0  0  0  0  0  0
  1  4  1  0  0  0  0
  1  2  1  0  0  0  0
  2 16  1  0  0  0  0
  3  2  2  0  0  0  0
  5  1  1  0  0  0  0
  6 11  2  0  0  0  0
  6  7  1  0  0  0  0
  7  8  2  0  0  0  0
  8  9  1  0  0  0  0
  8  5  1  0  0  0  0
 10  9  2  0  0  0  0
 11 10  1  0  0  0  0
 13 12  1  0  0  0  0
 13  6  1  0  0  0  0
 14 11  1  0  0  0  0
 15 14  1  0  0  0  0
 16 17  1  0  0  0  0
 18 17  1  0  0  0  0
 18 19  1  0  0  0  0
 19 20  1  0  0  0  0
 20 21  2  0  0  0  0
 21 22  1  0  0  0  0
 22 23  1  0  0  0  0
 24 22  1  0  0  0  0
M  END
>  <MODEL>
1

>  <REMARK>
 VINA RESULT:    -6.500      0.000      0.000
 INTER + INTRA:         -11.008
 INTER:                 -10.327
 INTRA:                  -0.681
 UNBOUND:                -0.897
  Name = CHEMBL294199
  13 active torsions:
  status: ('A' for Active; 'I' for Inactive)
    1  A    between atoms: C_1  and  O_2
    2  A    between atoms: O_2  and  C_3
    3  A    between atoms: C_5  and  C_6
    4  A    between atoms: C_6  and  N_7
    5  A    between atoms: C_8  and  C_10
    6  A    between atoms: C_10  and  C_11
    7  A    between atoms: C_11  and  C_12
    8  A    between atoms: C_12  and  C_13
    9  A    between atoms: C_13  and  C_14
   10  A    between atoms: C_15  and  C_16
   11  A    between atoms: C_16  and  C_17
   12  A    between atoms: C_16  and  C_18
   13  A    between atoms: C_21  and  O_22
                            x       y       z     vdW  Elec       q    Type
                         _______ _______ _______ _____ _____    ______ ____

>  <TORSDO>
F 10

>  <SCORE>
-6.500

>  <RMSD_LB>
0.000

>  <RMSD_UB>
0.000

$$$$
CHEMBL294199
 OpenBabel10172500063D

 24 24  0  0  0  0  0  0  0  0999 V2000
  138.6970  137.9110  154.4040 N   0  0  0  0  0  0  0  0  0  0  0  0
  140.0130  138.1150  154.0900 C   0  0  0  0  0  0  0  0  0  0  0  0
  140.9060  138.2460  154.9380 O   0  0  0  0  0  0  0  0  0  0  0  0
  138.0390  137.8080  153.6780 H   0  0  0  0  0  0  0  0  0  0  0  0
  138.2480  137.8440  155.7800 C   0  0  0  0  0  2  0  0  0  0  0  0
  135.7610  135.4690  157.5110 C   0  0  0  0  0  0  0  0  0  0  0  0
  136.7910  136.4020  157.3070 C   0  0  0  0  0  3  0  0  0  0  0  0
  137.1260  136.8570  156.0160 C   0  0  0  0  0  0  0  0  0  0  0  0
  136.4190  136.3350  154.9270 C   0  0  0  0  0  3  0  0  0  0  0  0
  135.3950  135.4030  155.1120 C   0  0  0  0  0  3  0  0  0  0  0  0
  135.0710  134.9760  156.4020 C   0  0  0  0  0  0  0  0  0  0  0  0
  134.6550  135.8970  159.5770 C   0  0  0  0  0  1  0  0  0  0  0  0
  135.3750  134.9990  158.7430 O   0  0  0  0  0  0  0  0  0  0  0  0
  134.0670  134.0620  156.5830 O   0  0  0  0  0  0  0  0  0  0  0  0
  133.3620  134.0120  155.9670 H   0  0  0  0  0  0  0  0  0  0  0  0
  140.2770  138.1640  152.6000 C   0  0  0  0  0  2  0  0  0  0  0  0
  141.7540  137.9520  152.2880 C   0  0  0  0  0  2  0  0  0  0  0  0
  142.4140  139.2170  151.7350 C   0  0  0  0  0  2  0  0  0  0  0  0
  143.8930  138.9630  151.4580 C   0  0  0  0  0  2  0  0  0  0  0  0
  144.7260  140.1680  151.7740 C   0  0  0  0  0  3  0  0  0  0  0  0
  144.7590  141.2600  150.9950 C   0  0  0  0  0  3  0  0  0  0  0  0
  145.6200  142.4630  151.2910 C   0  0  0  0  0  3  0  0  0  0  0  0
  146.3020  142.3300  152.6530 C   0  0  0  0  0  1  0  0  0  0  0  0
  146.6700  142.6580  150.1970 C   0  0  0  0  0  1  0  0  0  0  0  0
  1  5  1  0  0  0  0
  2  1  1  0  0  0  0
  2  3  2  0  0  0  0
  4  1  1  0  0  0  0
  5  8  1  0  0  0  0
  6 13  1  0  0  0  0
  7  6  1  0  0  0  0
  8  7  2  0  0  0  0
  9 10  2  0  0  0  0
  9  8  1  0  0  0  0
 10 11  1  0  0  0  0
 11 14  1  0  0  0  0
 11  6  2  0  0  0  0
 13 12  1  0  0  0  0
 15 14  1  0  0  0  0
 16  2  1  0  0  0  0
 17 16  1  0  0  0  0
 18 17  1  0  0  0  0
 19 18  1  0  0  0  0
 19 20  1  0  0  0  0
 21 22  1  0  0  0  0
 21 20  2  0  0  0  0
 22 23  1  0  0  0  0
 24 22  1  0  0  0  0
M  END
>  <MODEL>
2

>  <REMARK>
 VINA RESULT:    -6.293      6.601      9.862
 INTER + INTRA:         -10.685
 INTER:                 -10.135
 INTRA:                  -0.550
 UNBOUND:                -0.897
  Name = CHEMBL294199
  13 active torsions:
  status: ('A' for Active; 'I' for Inactive)
    1  A    between atoms: C_1  and  O_2
    2  A    between atoms: O_2  and  C_3
    3  A    between atoms: C_5  and  C_6
    4  A    between atoms: C_6  and  N_7
    5  A    between atoms: C_8  and  C_10
    6  A    between atoms: C_10  and  C_11
    7  A    between atoms: C_11  and  C_12
    8  A    between atoms: C_12  and  C_13
    9  A    between atoms: C_13  and  C_14
   10  A    between atoms: C_15  and  C_16
   11  A    between atoms: C_16  and  C_17
   12  A    between atoms: C_16  and  C_18
   13  A    between atoms: C_21  and  O_22
                            x       y       z     vdW  Elec       q    Type
                         _______ _______ _______ _____ _____    ______ ____

>  <TORSDO>
F 10

>  <SCORE>
-6.293

>  <RMSD_LB>
6.601

>  <RMSD_UB>
9.862

$$$$
CHEMBL294199
 OpenBabel10172500063D

 24 24  0  0  0  0  0  0  0  0999 V2000
  138.3330  138.2090  155.2800 N   0  0  0  0  0  0  0  0  0  0  0  0
  139.6880  138.0970  155.4390 C   0  0  0  0  0  0  0  0  0  0  0  0
  140.2170  137.4830  156.3760 O   0  0  0  0  0  0  0  0  0  0  0  0
  137.9790  138.7070  154.5070 H   0  0  0  0  0  0  0  0  0  0  0  0
  137.4080  137.6140  156.2230 C   0  0  0  0  0  2  0  0  0  0  0  0
  134.7870  134.8210  155.8300 C   0  0  0  0  0  0  0  0  0  0  0  0
  135.6150  135.8010  156.4020 C   0  0  0  0  0  3  0  0  0  0  0  0
  136.4940  136.5720  155.6160 C   0  0  0  0  0  0  0  0  0  0  0  0
  136.5420  136.3230  154.2400 C   0  0  0  0  0  3  0  0  0  0  0  0
  135.7280  135.3490  153.6550 C   0  0  0  0  0  3  0  0  0  0  0  0
  134.8550  134.6050  154.4530 C   0  0  0  0  0  0  0  0  0  0  0  0
  133.7300  134.3590  157.9150 C   0  0  0  0  0  1  0  0  0  0  0  0
  133.8970  134.0490  156.5380 O   0  0  0  0  0  0  0  0  0  0  0  0
  134.0570  133.6510  153.8790 O   0  0  0  0  0  0  0  0  0  0  0  0
  134.3930  132.7880  153.7290 H   0  0  0  0  0  0  0  0  0  0  0  0
  140.4830  138.7950  154.3570 C   0  0  0  0  0  2  0  0  0  0  0  0
  141.7780  138.0530  154.0490 C   0  0  0  0  0  2  0  0  0  0  0  0
  142.3410  138.4230  152.6750 C   0  0  0  0  0  2  0  0  0  0  0  0
  142.0170  137.3290  151.6600 C   0  0  0  0  0  2  0  0  0  0  0  0
  140.5580  137.3170  151.3140 C   0  0  0  0  0  3  0  0  0  0  0  0
  140.0920  136.9060  150.1250 C   0  0  0  0  0  3  0  0  0  0  0  0
  138.6290  136.9210  149.7590 C   0  0  0  0  0  3  0  0  0  0  0  0
  138.1940  135.5770  149.1720 C   0  0  0  0  0  1  0  0  0  0  0  0
  137.7710  137.2610  150.9770 C   0  0  0  0  0  1  0  0  0  0  0  0
  1  2  1  0  0  0  0
  1  5  1  0  0  0  0
  2  3  2  0  0  0  0
  4  1  1  0  0  0  0
  6  7  1  0  0  0  0
  6 13  1  0  0  0  0
  8  5  1  0  0  0  0
  8  7  2  0  0  0  0
  9  8  1  0  0  0  0
 10  9  2  0  0  0  0
 10 11  1  0  0  0  0
 11  6  2  0  0  0  0
 13 12  1  0  0  0  0
 14 11  1  0  0  0  0
 15 14  1  0  0  0  0
 16  2  1  0  0  0  0
 17 16  1  0  0  0  0
 18 17  1  0  0  0  0
 19 18  1  0  0  0  0
 20 19  1  0  0  0  0
 21 20  2  0  0  0  0
 22 21  1  0  0  0  0
 22 24  1  0  0  0  0
 23 22  1  0  0  0  0
M  END
>  <MODEL>
3

>  <REMARK>
 VINA RESULT:    -6.265      4.021      7.779
 INTER + INTRA:         -10.642
 INTER:                  -9.781
 INTRA:                  -0.861
 UNBOUND:                -0.897
  Name = CHEMBL294199
  13 active torsions:
  status: ('A' for Active; 'I' for Inactive)
    1  A    between atoms: C_1  and  O_2
    2  A    between atoms: O_2  and  C_3
    3  A    between atoms: C_5  and  C_6
    4  A    between atoms: C_6  and  N_7
    5  A    between atoms: C_8  and  C_10
    6  A    between atoms: C_10  and  C_11
    7  A    between atoms: C_11  and  C_12
    8  A    between atoms: C_12  and  C_13
    9  A    between atoms: C_13  and  C_14
   10  A    between atoms: C_15  and  C_16
   11  A    between atoms: C_16  and  C_17
   12  A    between atoms: C_16  and  C_18
   13  A    between atoms: C_21  and  O_22
                            x       y       z     vdW  Elec       q    Type
                         _______ _______ _______ _____ _____    ______ ____

>  <TORSDO>
F 10

>  <SCORE>
-6.265

>  <RMSD_LB>
4.021

>  <RMSD_UB>
7.779

$$$$
CHEMBL294199
 OpenBabel10172500063D

 24 24  0  0  0  0  0  0  0  0999 V2000
  144.5280  140.0090  150.7270 N   0  0  0  0  0  0  0  0  0  0  0  0
  144.9120  140.6300  151.8850 C   0  0  0  0  0  0  0  0  0  0  0  0
  144.8010  140.1150  153.0050 O   0  0  0  0  0  0  0  0  0  0  0  0
  144.6510  140.4740  149.8670 H   0  0  0  0  0  0  0  0  0  0  0  0
  143.9450  138.6820  150.7360 C   0  0  0  0  0  2  0  0  0  0  0  0
  140.2180  139.5730  151.1150 C   0  0  0  0  0  0  0  0  0  0  0  0
  141.5590  139.5990  150.6970 C   0  0  0  0  0  3  0  0  0  0  0  0
  142.4930  138.6510  151.1600 C   0  0  0  0  0  0  0  0  0  0  0  0
  142.0570  137.6850  152.0750 C   0  0  0  0  0  3  0  0  0  0  0  0
  140.7270  137.6470  152.5030 C   0  0  0  0  0  3  0  0  0  0  0  0
  139.8160  138.5900  152.0210 C   0  0  0  0  0  0  0  0  0  0  0  0
  138.6280  140.1730  149.4450 C   0  0  0  0  0  1  0  0  0  0  0  0
  139.2570  140.4570  150.6880 O   0  0  0  0  0  0  0  0  0  0  0  0
  138.5130  138.5520  152.4420 O   0  0  0  0  0  0  0  0  0  0  0  0
  138.2810  138.0610  153.2060 H   0  0  0  0  0  0  0  0  0  0  0  0
  145.4870  142.0130  151.6650 C   0  0  0  0  0  2  0  0  0  0  0  0
  146.9920  142.0360  151.9100 C   0  0  0  0  0  2  0  0  0  0  0  0
  147.3320  142.1750  153.3960 C   0  0  0  0  0  2  0  0  0  0  0  0
  148.6870  141.5350  153.6890 C   0  0  0  0  0  2  0  0  0  0  0  0
  148.5350  140.2550  154.4540 C   0  0  0  0  0  3  0  0  0  0  0  0
  148.0770  139.1220  153.9000 C   0  0  0  0  0  3  0  0  0  0  0  0
  147.8920  137.8390  154.6720 C   0  0  0  0  0  3  0  0  0  0  0  0
  147.8160  138.1080  156.1760 C   0  0  0  0  0  1  0  0  0  0  0  0
  146.6320  137.1070  154.2090 C   0  0  0  0  0  1  0  0  0  0  0  0
  1  5  1  0  0  0  0
  1  2  1  0  0  0  0
  2  3  2  0  0  0  0
  4  1  1  0  0  0  0
  5  8  1  0  0  0  0
  6 11  1  0  0  0  0
  7  6  2  0  0  0  0
  7  8  1  0  0  0  0
  8  9  2  0  0  0  0
  9 10  1  0  0  0  0
 11 14  1  0  0  0  0
 11 10  2  0  0  0  0
 12 13  1  0  0  0  0
 13  6  1  0  0  0  0
 14 15  1  0  0  0  0
 16  2  1  0  0  0  0
 16 17  1  0  0  0  0
 17 18  1  0  0  0  0
 18 19  1  0  0  0  0
 19 20  1  0  0  0  0
 21 20  2  0  0  0  0
 21 22  1  0  0  0  0
 22 23  1  0  0  0  0
 24 22  1  0  0  0  0
M  END
>  <MODEL>
4

>  <REMARK>
 VINA RESULT:    -6.096      9.211     11.011
 INTER + INTRA:         -10.379
 INTER:                  -9.543
 INTRA:                  -0.836
 UNBOUND:                -0.897
  Name = CHEMBL294199
  13 active torsions:
  status: ('A' for Active; 'I' for Inactive)
    1  A    between atoms: C_1  and  O_2
    2  A    between atoms: O_2  and  C_3
    3  A    between atoms: C_5  and  C_6
    4  A    between atoms: C_6  and  N_7
    5  A    between atoms: C_8  and  C_10
    6  A    between atoms: C_10  and  C_11
    7  A    between atoms: C_11  and  C_12
    8  A    between atoms: C_12  and  C_13
    9  A    between atoms: C_13  and  C_14
   10  A    between atoms: C_15  and  C_16
   11  A    between atoms: C_16  and  C_17
   12  A    between atoms: C_16  and  C_18
   13  A    between atoms: C_21  and  O_22
                            x       y       z     vdW  Elec       q    Type
                         _______ _______ _______ _____ _____    ______ ____

>  <TORSDO>
F 10

>  <SCORE>
-6.096

>  <RMSD_LB>
9.211

>  <RMSD_UB>
11.011

$$$$
CHEMBL294199
 OpenBabel10172500063D

 24 24  0  0  0  0  0  0  0  0999 V2000
  143.7700  139.0590  153.5890 N   0  0  0  0  0  0  0  0  0  0  0  0
  142.5670  138.4410  153.7960 C   0  0  0  0  0  0  0  0  0  0  0  0
  141.9750  138.4440  154.8830 O   0  0  0  0  0  0  0  0  0  0  0  0
  144.1830  139.0220  152.6950 H   0  0  0  0  0  0  0  0  0  0  0  0
  144.4520  139.7640  154.6550 C   0  0  0  0  0  2  0  0  0  0  0  0
  148.2500  139.7740  154.0220 C   0  0  0  0  0  0  0  0  0  0  0  0
  146.9520  139.3380  154.3330 C   0  0  0  0  0  3  0  0  0  0  0  0
  145.8510  140.2170  154.2980 C   0  0  0  0  0  0  0  0  0  0  0  0
  146.0850  141.5560  153.9650 C   0  0  0  0  0  3  0  0  0  0  0  0
  147.3700  142.0080  153.6560 C   0  0  0  0  0  3  0  0  0  0  0  0
  148.4450  141.1150  153.6850 C   0  0  0  0  0  0  0  0  0  0  0  0
  149.2070  137.6620  153.4730 C   0  0  0  0  0  1  0  0  0  0  0  0
  149.3600  138.9650  154.0200 O   0  0  0  0  0  0  0  0  0  0  0  0
  149.7050  141.5590  153.3820 O   0  0  0  0  0  0  0  0  0  0  0  0
  150.3120  141.7510  154.0700 H   0  0  0  0  0  0  0  0  0  0  0  0
  142.0230  137.7500  152.5630 C   0  0  0  0  0  2  0  0  0  0  0  0
  140.5030  137.8330  152.5010 C   0  0  0  0  0  2  0  0  0  0  0  0
  139.9530  137.3390  151.1610 C   0  0  0  0  0  2  0  0  0  0  0  0
  138.5000  137.7780  150.9930 C   0  0  0  0  0  2  0  0  0  0  0  0
  137.6090  137.1280  152.0080 C   0  0  0  0  0  3  0  0  0  0  0  0
  136.5760  136.3390  151.6760 C   0  0  0  0  0  3  0  0  0  0  0  0
  135.6560  135.7080  152.6910 C   0  0  0  0  0  3  0  0  0  0  0  0
  135.6230  134.1870  152.5340 C   0  0  0  0  0  1  0  0  0  0  0  0
  136.0850  136.0770  154.1110 C   0  0  0  0  0  1  0  0  0  0  0  0
  1  2  1  0  0  0  0
  1  5  1  0  0  0  0
  2  3  2  0  0  0  0
  4  1  1  0  0  0  0
  6  7  1  0  0  0  0
  8  7  2  0  0  0  0
  8  5  1  0  0  0  0
  9  8  1  0  0  0  0
 10 11  1  0  0  0  0
 10  9  2  0  0  0  0
 11  6  2  0  0  0  0
 12 13  1  0  0  0  0
 13  6  1  0  0  0  0
 14 11  1  0  0  0  0
 14 15  1  0  0  0  0
 16  2  1  0  0  0  0
 17 16  1  0  0  0  0
 18 17  1  0  0  0  0
 19 18  1  0  0  0  0
 19 20  1  0  0  0  0
 21 20  2  0  0  0  0
 21 22  1  0  0  0  0
 22 24  1  0  0  0  0
 23 22  1  0  0  0  0
M  END
>  <MODEL>
5

>  <REMARK>
 VINA RESULT:    -6.068      8.832     12.213
 INTER + INTRA:         -10.335
 INTER:                  -9.813
 INTRA:                  -0.522
 UNBOUND:                -0.897
  Name = CHEMBL294199
  13 active torsions:
  status: ('A' for Active; 'I' for Inactive)
    1  A    between atoms: C_1  and  O_2
    2  A    between atoms: O_2  and  C_3
    3  A    between atoms: C_5  and  C_6
    4  A    between atoms: C_6  and  N_7
    5  A    between atoms: C_8  and  C_10
    6  A    between atoms: C_10  and  C_11
    7  A    between atoms: C_11  and  C_12
    8  A    between atoms: C_12  and  C_13
    9  A    between atoms: C_13  and  C_14
   10  A    between atoms: C_15  and  C_16
   11  A    between atoms: C_16  and  C_17
   12  A    between atoms: C_16  and  C_18
   13  A    between atoms: C_21  and  O_22
                            x       y       z     vdW  Elec       q    Type
                         _______ _______ _______ _____ _____    ______ ____

>  <TORSDO>
F 10

>  <SCORE>
-6.068

>  <RMSD_LB>
8.832

>  <RMSD_UB>
12.213

$$$$
CHEMBL294199
 OpenBabel10172500063D

 24 24  0  0  0  0  0  0  0  0999 V2000
  142.6180  139.6520  154.2060 N   0  0  0  0  0  0  0  0  0  0  0  0
  141.8220  138.5530  154.3860 C   0  0  0  0  0  0  0  0  0  0  0  0
  142.2480  137.3900  154.3690 O   0  0  0  0  0  0  0  0  0  0  0  0
  142.2140  140.5500  154.2390 H   0  0  0  0  0  0  0  0  0  0  0  0
  144.0420  139.5240  153.9660 C   0  0  0  0  0  2  0  0  0  0  0  0
  146.1910  140.7160  151.0020 C   0  0  0  0  0  0  0  0  0  0  0  0
  145.8060  140.3030  152.2880 C   0  0  0  0  0  3  0  0  0  0  0  0
  144.4740  139.9470  152.5790 C   0  0  0  0  0  0  0  0  0  0  0  0
  143.5260  140.0380  151.5540 C   0  0  0  0  0  3  0  0  0  0  0  0
  143.8910  140.4490  150.2690 C   0  0  0  0  0  3  0  0  0  0  0  0
  145.2200  140.7850  150.0010 C   0  0  0  0  0  0  0  0  0  0  0  0
  148.1590  141.9570  151.5120 C   0  0  0  0  0  1  0  0  0  0  0  0
  147.4730  141.0580  150.6500 O   0  0  0  0  0  0  0  0  0  0  0  0
  145.5770  141.1890  148.7420 O   0  0  0  0  0  0  0  0  0  0  0  0
  145.4390  140.6200  148.0100 H   0  0  0  0  0  0  0  0  0  0  0  0
  140.3650  138.8950  154.6120 C   0  0  0  0  0  2  0  0  0  0  0  0
  139.4740  138.2750  153.5420 C   0  0  0  0  0  2  0  0  0  0  0  0
  139.8850  138.7030  152.1310 C   0  0  0  0  0  2  0  0  0  0  0  0
  140.0240  137.4790  151.2280 C   0  0  0  0  0  2  0  0  0  0  0  0
  141.4060  137.3730  150.6560 C   0  0  0  0  0  3  0  0  0  0  0  0
  141.7970  136.3570  149.8720 C   0  0  0  0  0  3  0  0  0  0  0  0
  143.1950  136.2270  149.3200 C   0  0  0  0  0  3  0  0  0  0  0  0
  144.2410  136.5200  150.3970 C   0  0  0  0  0  1  0  0  0  0  0  0
  143.4190  134.8320  148.7390 C   0  0  0  0  0  1  0  0  0  0  0  0
  1  4  1  0  0  0  0
  1  2  1  0  0  0  0
  2 16  1  0  0  0  0
  3  2  2  0  0  0  0
  5  1  1  0  0  0  0
  6  7  1  0  0  0  0
  7  8  2  0  0  0  0
  8  5  1  0  0  0  0
  9  8  1  0  0  0  0
 10  9  2  0  0  0  0
 11 10  1  0  0  0  0
 11  6  2  0  0  0  0
 13  6  1  0  0  0  0
 13 12  1  0  0  0  0
 14 11  1  0  0  0  0
 15 14  1  0  0  0  0
 17 16  1  0  0  0  0
 18 17  1  0  0  0  0
 19 18  1  0  0  0  0
 20 19  1  0  0  0  0
 21 20  2  0  0  0  0
 22 21  1  0  0  0  0
 22 23  1  0  0  0  0
 24 22  1  0  0  0  0
M  END
>  <MODEL>
6

>  <REMARK>
 VINA RESULT:    -5.903      8.724     11.535
 INTER + INTRA:         -10.078
 INTER:                  -8.498
 INTRA:                  -1.580
 UNBOUND:                -0.897
  Name = CHEMBL294199
  13 active torsions:
  status: ('A' for Active; 'I' for Inactive)
    1  A    between atoms: C_1  and  O_2
    2  A    between atoms: O_2  and  C_3
    3  A    between atoms: C_5  and  C_6
    4  A    between atoms: C_6  and  N_7
    5  A    between atoms: C_8  and  C_10
    6  A    between atoms: C_10  and  C_11
    7  A    between atoms: C_11  and  C_12
    8  A    between atoms: C_12  and  C_13
    9  A    between atoms: C_13  and  C_14
   10  A    between atoms: C_15  and  C_16
   11  A    between atoms: C_16  and  C_17
   12  A    between atoms: C_16  and  C_18
   13  A    between atoms: C_21  and  O_22
                            x       y       z     vdW  Elec       q    Type
                         _______ _______ _______ _____ _____    ______ ____

>  <TORSDO>
F 10

>  <SCORE>
-5.903

>  <RMSD_LB>
8.724

>  <RMSD_UB>
11.535

$$$$
CHEMBL294199
 OpenBabel10172500063D

 24 24  0  0  0  0  0  0  0  0999 V2000
  143.8820  138.7860  152.4140 N   0  0  0  0  0  0  0  0  0  0  0  0
  144.5230  139.8570  152.9760 C   0  0  0  0  0  0  0  0  0  0  0  0
  144.6470  140.0140  154.1980 O   0  0  0  0  0  0  0  0  0  0  0  0
  143.8260  138.7200  151.4320 H   0  0  0  0  0  0  0  0  0  0  0  0
  143.2840  137.7480  153.2290 C   0  0  0  0  0  2  0  0  0  0  0  0
  139.5010  138.2180  152.6900 C   0  0  0  0  0  0  0  0  0  0  0  0
  140.8680  138.0150  152.4390 C   0  0  0  0  0  3  0  0  0  0  0  0
  141.8060  137.9420  153.4880 C   0  0  0  0  0  0  0  0  0  0  0  0
  141.3450  138.1000  154.7990 C   0  0  0  0  0  3  0  0  0  0  0  0
  139.9890  138.3050  155.0670 C   0  0  0  0  0  3  0  0  0  0  0  0
  139.0760  138.3620  154.0120 C   0  0  0  0  0  0  0  0  0  0  0  0
  138.3520  137.1230  150.9130 C   0  0  0  0  0  1  0  0  0  0  0  0
  138.5360  138.2820  151.7150 O   0  0  0  0  0  0  0  0  0  0  0  0
  137.7470  138.5640  154.2740 O   0  0  0  0  0  0  0  0  0  0  0  0
  137.4470  139.4070  154.5550 H   0  0  0  0  0  0  0  0  0  0  0  0
  145.0690  140.8360  151.9590 C   0  0  0  0  0  2  0  0  0  0  0  0
  146.5570  140.6130  151.7130 C   0  0  0  0  0  2  0  0  0  0  0  0
  147.4230  141.6330  152.4560 C   0  0  0  0  0  2  0  0  0  0  0  0
  148.5470  140.9220  153.2060 C   0  0  0  0  0  2  0  0  0  0  0  0
  148.1260  139.5570  153.6610 C   0  0  0  0  0  3  0  0  0  0  0  0
  147.8360  139.2690  154.9390 C   0  0  0  0  0  3  0  0  0  0  0  0
  147.4440  137.8900  155.4090 C   0  0  0  0  0  3  0  0  0  0  0  0
  146.8690  137.0600  154.2600 C   0  0  0  0  0  1  0  0  0  0  0  0
  148.6410  137.1690  156.0270 C   0  0  0  0  0  1  0  0  0  0  0  0
  1  2  1  0  0  0  0
  1  5  1  0  0  0  0
  2  3  2  0  0  0  0
  4  1  1  0  0  0  0
  5  8  1  0  0  0  0
  6 11  1  0  0  0  0
  7  6  2  0  0  0  0
  7  8  1  0  0  0  0
  8  9  2  0  0  0  0
  9 10  1  0  0  0  0
 11 14  1  0  0  0  0
 11 10  2  0  0  0  0
 12 13  1  0  0  0  0
 13  6  1  0  0  0  0
 14 15  1  0  0  0  0
 16  2  1  0  0  0  0
 17 16  1  0  0  0  0
 17 18  1  0  0  0  0
 18 19  1  0  0  0  0
 19 20  1  0  0  0  0
 20 21  2  0  0  0  0
 21 22  1  0  0  0  0
 22 24  1  0  0  0  0
 23 22  1  0  0  0  0
M  END
>  <MODEL>
7

>  <REMARK>
 VINA RESULT:    -5.898      8.444     10.798
 INTER + INTRA:         -10.071
 INTER:                  -8.852
 INTRA:                  -1.219
 UNBOUND:                -0.897
  Name = CHEMBL294199
  13 active torsions:
  status: ('A' for Active; 'I' for Inactive)
    1  A    between atoms: C_1  and  O_2
    2  A    between atoms: O_2  and  C_3
    3  A    between atoms: C_5  and  C_6
    4  A    between atoms: C_6  and  N_7
    5  A    between atoms: C_8  and  C_10
    6  A    between atoms: C_10  and  C_11
    7  A    between atoms: C_11  and  C_12
    8  A    between atoms: C_12  and  C_13
    9  A    between atoms: C_13  and  C_14
   10  A    between atoms: C_15  and  C_16
   11  A    between atoms: C_16  and  C_17
   12  A    between atoms: C_16  and  C_18
   13  A    between atoms: C_21  and  O_22
                            x       y       z     vdW  Elec       q    Type
                         _______ _______ _______ _____ _____    ______ ____

>  <TORSDO>
F 10

>  <SCORE>
-5.898

>  <RMSD_LB>
8.444

>  <RMSD_UB>
10.798

$$$$
CHEMBL294199
 OpenBabel10172500063D

 24 24  0  0  0  0  0  0  0  0999 V2000
  144.8200  141.0770  149.9750 N   0  0  0  0  0  0  0  0  0  0  0  0
  145.1830  140.4840  148.7960 C   0  0  0  0  0  0  0  0  0  0  0  0
  146.1930  140.8010  148.1530 O   0  0  0  0  0  0  0  0  0  0  0  0
  144.0060  140.7700  150.4380 H   0  0  0  0  0  0  0  0  0  0  0  0
  145.6060  142.1460  150.5580 C   0  0  0  0  0  2  0  0  0  0  0  0
  146.6950  140.5600  153.8930 C   0  0  0  0  0  0  0  0  0  0  0  0
  145.9150  140.9310  152.7850 C   0  0  0  0  0  3  0  0  0  0  0  0
  146.4430  141.7200  151.7440 C   0  0  0  0  0  0  0  0  0  0  0  0
  147.7710  142.1500  151.8480 C   0  0  0  0  0  3  0  0  0  0  0  0
  148.5600  141.7920  152.9450 C   0  0  0  0  0  3  0  0  0  0  0  0
  148.0190  141.0000  153.9590 C   0  0  0  0  0  0  0  0  0  0  0  0
  144.9220  139.2720  154.8280 C   0  0  0  0  0  1  0  0  0  0  0  0
  146.2460  139.7800  154.9310 O   0  0  0  0  0  0  0  0  0  0  0  0
  148.7930  140.6500  155.0340 O   0  0  0  0  0  0  0  0  0  0  0  0
  149.0110  141.2910  155.6830 H   0  0  0  0  0  0  0  0  0  0  0  0
  144.2280  139.3970  148.3480 C   0  0  0  0  0  2  0  0  0  0  0  0
  144.3590  138.1490  149.2130 C   0  0  0  0  0  2  0  0  0  0  0  0
  142.9980  137.5340  149.5470 C   0  0  0  0  0  2  0  0  0  0  0  0
  142.9740  137.0670  151.0010 C   0  0  0  0  0  2  0  0  0  0  0  0
  141.6130  137.2350  151.6080 C   0  0  0  0  0  3  0  0  0  0  0  0
  141.0330  138.4320  151.7850 C   0  0  0  0  0  3  0  0  0  0  0  0
  139.6780  138.6100  152.4250 C   0  0  0  0  0  3  0  0  0  0  0  0
  138.6480  137.6670  151.8010 C   0  0  0  0  0  1  0  0  0  0  0  0
  139.7580  138.3720  153.9320 C   0  0  0  0  0  1  0  0  0  0  0  0
  1  4  1  0  0  0  0
  1  5  1  0  0  0  0
  2  1  1  0  0  0  0
  3  2  2  0  0  0  0
  5  8  1  0  0  0  0
  6 11  1  0  0  0  0
  6 13  1  0  0  0  0
  7  6  2  0  0  0  0
  8  9  2  0  0  0  0
  8  7  1  0  0  0  0
  9 10  1  0  0  0  0
 10 11  2  0  0  0  0
 11 14  1  0  0  0  0
 12 13  1  0  0  0  0
 14 15  1  0  0  0  0
 16  2  1  0  0  0  0
 16 17  1  0  0  0  0
 17 18  1  0  0  0  0
 18 19  1  0  0  0  0
 19 20  1  0  0  0  0
 20 21  2  0  0  0  0
 21 22  1  0  0  0  0
 22 24  1  0  0  0  0
 23 22  1  0  0  0  0
M  END
>  <MODEL>
8

>  <REMARK>
 VINA RESULT:    -5.885     10.054     13.035
 INTER + INTRA:         -10.050
 INTER:                  -9.153
 INTRA:                  -0.897
 UNBOUND:                -0.897
  Name = CHEMBL294199
  13 active torsions:
  status: ('A' for Active; 'I' for Inactive)
    1  A    between atoms: C_1  and  O_2
    2  A    between atoms: O_2  and  C_3
    3  A    between atoms: C_5  and  C_6
    4  A    between atoms: C_6  and  N_7
    5  A    between atoms: C_8  and  C_10
    6  A    between atoms: C_10  and  C_11
    7  A    between atoms: C_11  and  C_12
    8  A    between atoms: C_12  and  C_13
    9  A    between atoms: C_13  and  C_14
   10  A    between atoms: C_15  and  C_16
   11  A    between atoms: C_16  and  C_17
   12  A    between atoms: C_16  and  C_18
   13  A    between atoms: C_21  and  O_22
                            x       y       z     vdW  Elec       q    Type
                         _______ _______ _______ _____ _____    ______ ____

>  <TORSDO>
F 10

>  <SCORE>
-5.885

>  <RMSD_LB>
10.054

>  <RMSD_UB>
13.035

$$$$
CHEMBL294199
 OpenBabel10172500063D

 24 24  0  0  0  0  0  0  0  0999 V2000
  143.5610  139.0270  150.4300 N   0  0  0  0  0  0  0  0  0  0  0  0
  142.3770  138.4990  150.8690 C   0  0  0  0  0  0  0  0  0  0  0  0
  141.4710  139.1770  151.3720 O   0  0  0  0  0  0  0  0  0  0  0  0
  144.2360  138.4300  150.0330 H   0  0  0  0  0  0  0  0  0  0  0  0
  143.8440  140.4440  150.5380 C   0  0  0  0  0  2  0  0  0  0  0  0
  145.8700  140.3110  153.8090 C   0  0  0  0  0  0  0  0  0  0  0  0
  144.9920  139.9610  152.7690 C   0  0  0  0  0  3  0  0  0  0  0  0
  144.8040  140.7990  151.6520 C   0  0  0  0  0  0  0  0  0  0  0  0
  145.5010  142.0110  151.6100 C   0  0  0  0  0  3  0  0  0  0  0  0
  146.3760  142.3760  152.6360 C   0  0  0  0  0  3  0  0  0  0  0  0
  146.5550  141.5240  153.7290 C   0  0  0  0  0  0  0  0  0  0  0  0
  146.4600  138.1740  154.6820 C   0  0  0  0  0  1  0  0  0  0  0  0
  146.1100  139.5320  154.9150 O   0  0  0  0  0  0  0  0  0  0  0  0
  147.4130  141.8820  154.7360 O   0  0  0  0  0  0  0  0  0  0  0  0
  148.1410  141.3320  154.9490 H   0  0  0  0  0  0  0  0  0  0  0  0
  142.2770  137.0010  150.6790 C   0  0  0  0  0  2  0  0  0  0  0  0
  143.6090  136.4040  150.2380 C   0  0  0  0  0  2  0  0  0  0  0  0
  143.4280  135.2950  149.1990 C   0  0  0  0  0  2  0  0  0  0  0  0
  144.5940  135.3010  148.2130 C   0  0  0  0  0  2  0  0  0  0  0  0
  145.3550  136.5910  148.2710 C   0  0  0  0  0  3  0  0  0  0  0  0
  146.6220  136.7130  147.8460 C   0  0  0  0  0  3  0  0  0  0  0  0
  147.4050  138.0000  147.9320 C   0  0  0  0  0  3  0  0  0  0  0  0
  148.1900  138.2530  146.6440 C   0  0  0  0  0  1  0  0  0  0  0  0
  146.4750  139.1790  148.2180 C   0  0  0  0  0  1  0  0  0  0  0  0
  1  5  1  0  0  0  0
  1  2  1  0  0  0  0
  2  3  2  0  0  0  0
  4  1  1  0  0  0  0
  5  8  1  0  0  0  0
  6 13  1  0  0  0  0
  7  6  2  0  0  0  0
  8  7  1  0  0  0  0
  9  8  2  0  0  0  0
  9 10  1  0  0  0  0
 10 11  2  0  0  0  0
 11  6  1  0  0  0  0
 11 14  1  0  0  0  0
 12 13  1  0  0  0  0
 14 15  1  0  0  0  0
 16  2  1  0  0  0  0
 17 16  1  0  0  0  0
 18 17  1  0  0  0  0
 19 20  1  0  0  0  0
 19 18  1  0  0  0  0
 21 22  1  0  0  0  0
 21 20  2  0  0  0  0
 22 24  1  0  0  0  0
 23 22  1  0  0  0  0
M  END
>  <MODEL>
9

>  <REMARK>
 VINA RESULT:    -5.813     10.169     13.636
 INTER + INTRA:          -9.939
 INTER:                  -8.713
 INTRA:                  -1.226
 UNBOUND:                -0.897
  Name = CHEMBL294199
  13 active torsions:
  status: ('A' for Active; 'I' for Inactive)
    1  A    between atoms: C_1  and  O_2
    2  A    between atoms: O_2  and  C_3
    3  A    between atoms: C_5  and  C_6
    4  A    between atoms: C_6  and  N_7
    5  A    between atoms: C_8  and  C_10
    6  A    between atoms: C_10  and  C_11
    7  A    between atoms: C_11  and  C_12
    8  A    between atoms: C_12  and  C_13
    9  A    between atoms: C_13  and  C_14
   10  A    between atoms: C_15  and  C_16
   11  A    between atoms: C_16  and  C_17
   12  A    between atoms: C_16  and  C_18
   13  A    between atoms: C_21  and  O_22
                            x       y       z     vdW  Elec       q    Type
                         _______ _______ _______ _____ _____    ______ ____

>  <TORSDO>
F 10

>  <SCORE>
-5.813

>  <RMSD_LB>
10.169

>  <RMSD_UB>
13.636

$$$$
