CHEMBL3544653
 OpenBabel10162523343D

 17 17  0  0  1  0  0  0  0  0999 V2000
  145.8470  141.7390  151.3590 C   0  0  0  0  0  0  0  0  0  0  0  0
  146.3470  141.4190  152.6290 C   0  0  0  0  0  3  0  0  0  0  0  0
  147.7070  141.5810  152.9400 C   0  0  0  0  0  0  0  0  0  0  0  0
  148.5610  142.1010  151.9510 C   0  0  0  0  0  3  0  0  0  0  0  0
  148.0760  142.4290  150.6850 C   0  0  0  0  0  3  0  0  0  0  0  0
  146.7270  142.2490  150.3940 C   0  0  0  0  0  0  0  0  0  0  0  0
  143.9620  140.3090  151.0500 C   0  0  0  0  0  1  0  0  0  0  0  0
  144.5380  141.6050  150.9730 O   0  0  0  0  0  0  0  0  0  0  0  0
  146.2460  142.5780  149.1550 O   0  0  0  0  0  0  0  0  0  0  0  0
  145.3760  142.3320  148.9090 H   0  0  0  0  0  0  0  0  0  0  0  0
  148.2810  141.3230  154.3210 C   0  0  0  0  0  2  0  0  0  0  0  0
  148.3310  139.8640  154.8410 C   0  0  2  0  0  3  0  0  0  0  0  0
  148.7180  138.9200  153.7000 C   0  0  0  0  0  1  0  0  0  0  0  0
  147.0560  139.4160  155.4120 N   0  0  0  0  0  4  0  0  0  0  0  0
  147.2270  138.6540  156.0670 H   0  0  0  0  0  0  0  0  0  0  0  0
  146.4430  139.0920  154.6640 H   0  0  0  0  0  0  0  0  0  0  0  0
  146.6120  140.1930  155.9020 H   0  0  0  0  0  0  0  0  0  0  0  0
  1  2  1  0  0  0  0
  2  3  2  0  0  0  0
  3 11  1  0  0  0  0
  4  3  1  0  0  0  0
  5  4  2  0  0  0  0
  6  5  1  0  0  0  0
  6  1  2  0  0  0  0
  8  7  1  0  0  0  0
  8  1  1  0  0  0  0
  9  6  1  0  0  0  0
 10  9  1  0  0  0  0
 11 12  1  0  0  0  0
 12 13  1  6  0  0  0
 12 14  1  0  0  0  0
 14 17  1  0  0  0  0
 14 15  1  0  0  0  0
 16 14  1  0  0  0  0
M  END
>  <MODEL>
1

>  <REMARK>
 VINA RESULT:    -5.148      0.000      0.000
 INTER + INTRA:          -6.621
 INTER:                  -6.398
 INTRA:                  -0.223
 UNBOUND:                -0.269
  Name = CHEMBL3544653
  7 active torsions:
  status: ('A' for Active; 'I' for Inactive)
    1  A    between atoms: C_1  and  O_2
    2  A    between atoms: O_2  and  C_3
    3  A    between atoms: C_5  and  C_6
    4  A    between atoms: C_6  and  C_7
    5  A    between atoms: C_7  and  C_8
    6  A    between atoms: C_7  and  N_9
    7  A    between atoms: C_12  and  O_13
                            x       y       z     vdW  Elec       q    Type
                         _______ _______ _______ _____ _____    ______ ____

>  <TORSDO>
F 5

>  <SCORE>
-5.148

>  <RMSD_LB>
0.000

>  <RMSD_UB>
0.000

$$$$
CHEMBL3544653
 OpenBabel10162523343D

 17 17  0  0  1  0  0  0  0  0999 V2000
  146.4280  141.2670  153.2750 C   0  0  0  0  0  0  0  0  0  0  0  0
  146.0240  141.5610  151.9650 C   0  0  0  0  0  3  0  0  0  0  0  0
  146.9400  142.0200  151.0050 C   0  0  0  0  0  0  0  0  0  0  0  0
  148.2880  142.1560  151.3790 C   0  0  0  0  0  3  0  0  0  0  0  0
  148.7050  141.8620  152.6780 C   0  0  0  0  0  3  0  0  0  0  0  0
  147.7780  141.4200  153.6160 C   0  0  0  0  0  0  0  0  0  0  0  0
  144.8030  139.6770  153.9970 C   0  0  0  0  0  1  0  0  0  0  0  0
  145.5990  140.8210  154.2710 O   0  0  0  0  0  0  0  0  0  0  0  0
  148.1870  141.1220  154.8900 O   0  0  0  0  0  0  0  0  0  0  0  0
  147.7400  140.4620  155.3820 H   0  0  0  0  0  0  0  0  0  0  0  0
  146.5670  142.2770  149.5550 C   0  0  0  0  0  2  0  0  0  0  0  0
  146.2300  141.0650  148.6520 C   0  0  2  0  0  3  0  0  0  0  0  0
  146.5480  141.4010  147.1930 C   0  0  0  0  0  1  0  0  0  0  0  0
  144.8250  140.6550  148.7460 N   0  0  0  0  0  4  0  0  0  0  0  0
  144.5160  140.7220  149.7150 H   0  0  0  0  0  0  0  0  0  0  0  0
  144.7290  139.6920  148.4240 H   0  0  0  0  0  0  0  0  0  0  0  0
  144.2530  141.2660  148.1630 H   0  0  0  0  0  0  0  0  0  0  0  0
  1  6  1  0  0  0  0
  1  8  1  0  0  0  0
  2  1  2  0  0  0  0
  3  4  2  0  0  0  0
  3  2  1  0  0  0  0
  4  5  1  0  0  0  0
  5  6  2  0  0  0  0
  6  9  1  0  0  0  0
  7  8  1  0  0  0  0
  9 10  1  0  0  0  0
 11  3  1  0  0  0  0
 12 13  1  6  0  0  0
 12 14  1  0  0  0  0
 12 11  1  0  0  0  0
 14 15  1  0  0  0  0
 16 14  1  0  0  0  0
 17 14  1  0  0  0  0
M  END
>  <MODEL>
2

>  <REMARK>
 VINA RESULT:    -5.113      3.026      4.495
 INTER + INTRA:          -6.577
 INTER:                  -6.386
 INTRA:                  -0.190
 UNBOUND:                -0.269
  Name = CHEMBL3544653
  7 active torsions:
  status: ('A' for Active; 'I' for Inactive)
    1  A    between atoms: C_1  and  O_2
    2  A    between atoms: O_2  and  C_3
    3  A    between atoms: C_5  and  C_6
    4  A    between atoms: C_6  and  C_7
    5  A    between atoms: C_7  and  C_8
    6  A    between atoms: C_7  and  N_9
    7  A    between atoms: C_12  and  O_13
                            x       y       z     vdW  Elec       q    Type
                         _______ _______ _______ _____ _____    ______ ____

>  <TORSDO>
F 5

>  <SCORE>
-5.113

>  <RMSD_LB>
3.026

>  <RMSD_UB>
4.495

$$$$
CHEMBL3544653
 OpenBabel10162523343D

 17 17  0  0  1  0  0  0  0  0999 V2000
  146.3930  139.9220  150.1720 C   0  0  0  0  0  0  0  0  0  0  0  0
  146.4680  140.3200  151.5140 C   0  0  0  0  0  3  0  0  0  0  0  0
  146.5940  141.6720  151.8690 C   0  0  0  0  0  0  0  0  0  0  0  0
  146.6160  142.6320  150.8430 C   0  0  0  0  0  3  0  0  0  0  0  0
  146.5370  142.2520  149.5030 C   0  0  0  0  0  3  0  0  0  0  0  0
  146.4250  140.9050  149.1730 C   0  0  0  0  0  0  0  0  0  0  0  0
  145.1130  137.9100  150.1320 C   0  0  0  0  0  1  0  0  0  0  0  0
  146.2760  138.6260  149.7410 O   0  0  0  0  0  0  0  0  0  0  0  0
  146.3370  140.5290  147.8590 O   0  0  0  0  0  0  0  0  0  0  0  0
  145.6020  140.0310  147.5620 H   0  0  0  0  0  0  0  0  0  0  0  0
  146.6010  142.1580  153.3080 C   0  0  0  0  0  2  0  0  0  0  0  0
  147.8360  141.8430  154.1890 C   0  0  2  0  0  3  0  0  0  0  0  0
  149.1060  141.8790  153.3340 C   0  0  0  0  0  1  0  0  0  0  0  0
  147.7490  140.5360  154.8490 N   0  0  0  0  0  4  0  0  0  0  0  0
  147.6730  139.8040  154.1440 H   0  0  0  0  0  0  0  0  0  0  0  0
  146.9280  140.5130  155.4530 H   0  0  0  0  0  0  0  0  0  0  0  0
  148.5870  140.3820  155.4100 H   0  0  0  0  0  0  0  0  0  0  0  0
  1  2  1  0  0  0  0
  2  3  2  0  0  0  0
  3 11  1  0  0  0  0
  4  3  1  0  0  0  0
  5  4  2  0  0  0  0
  6  5  1  0  0  0  0
  6  1  2  0  0  0  0
  8  7  1  0  0  0  0
  8  1  1  0  0  0  0
  9  6  1  0  0  0  0
 10  9  1  0  0  0  0
 11 12  1  0  0  0  0
 12 13  1  6  0  0  0
 12 14  1  0  0  0  0
 14 17  1  0  0  0  0
 14 16  1  0  0  0  0
 15 14  1  0  0  0  0
M  END
>  <MODEL>
3

>  <REMARK>
 VINA RESULT:    -4.906      1.960      2.317
 INTER + INTRA:          -6.322
 INTER:                  -6.097
 INTRA:                  -0.225
 UNBOUND:                -0.269
  Name = CHEMBL3544653
  7 active torsions:
  status: ('A' for Active; 'I' for Inactive)
    1  A    between atoms: C_1  and  O_2
    2  A    between atoms: O_2  and  C_3
    3  A    between atoms: C_5  and  C_6
    4  A    between atoms: C_6  and  C_7
    5  A    between atoms: C_7  and  C_8
    6  A    between atoms: C_7  and  N_9
    7  A    between atoms: C_12  and  O_13
                            x       y       z     vdW  Elec       q    Type
                         _______ _______ _______ _____ _____    ______ ____

>  <TORSDO>
F 5

>  <SCORE>
-4.906

>  <RMSD_LB>
1.960

>  <RMSD_UB>
2.317

$$$$
CHEMBL3544653
 OpenBabel10162523343D

 17 17  0  0  1  0  0  0  0  0999 V2000
  139.7090  138.2870  154.9130 C   0  0  0  0  0  0  0  0  0  0  0  0
  141.1070  138.2680  155.0100 C   0  0  0  0  0  3  0  0  0  0  0  0
  141.9140  138.0210  153.8880 C   0  0  0  0  0  0  0  0  0  0  0  0
  141.2860  137.8170  152.6460 C   0  0  0  0  0  3  0  0  0  0  0  0
  139.8950  137.8390  152.5340 C   0  0  0  0  0  3  0  0  0  0  0  0
  139.1150  138.0740  153.6610 C   0  0  0  0  0  0  0  0  0  0  0  0
  138.7040  137.4800  156.9200 C   0  0  0  0  0  1  0  0  0  0  0  0
  138.8510  138.5140  155.9580 O   0  0  0  0  0  0  0  0  0  0  0  0
  137.7500  138.1040  153.5520 O   0  0  0  0  0  0  0  0  0  0  0  0
  137.2900  138.9140  153.6530 H   0  0  0  0  0  0  0  0  0  0  0  0
  143.4310  138.0670  153.9260 C   0  0  0  0  0  2  0  0  0  0  0  0
  144.1210  139.4020  154.3020 C   0  0  2  0  0  3  0  0  0  0  0  0
  144.9510  139.9080  153.1190 C   0  0  0  0  0  1  0  0  0  0  0  0
  144.9950  139.2830  155.4750 N   0  0  0  0  0  4  0  0  0  0  0  0
  145.9690  139.2820  155.1730 H   0  0  0  0  0  0  0  0  0  0  0  0
  144.7900  138.4140  155.9660 H   0  0  0  0  0  0  0  0  0  0  0  0
  144.8340  140.0730  156.1000 H   0  0  0  0  0  0  0  0  0  0  0  0
  1  2  1  0  0  0  0
  1  8  1  0  0  0  0
  3 11  1  0  0  0  0
  3  2  2  0  0  0  0
  4  3  1  0  0  0  0
  5  4  2  0  0  0  0
  5  6  1  0  0  0  0
  6  1  2  0  0  0  0
  8  7  1  0  0  0  0
  9 10  1  0  0  0  0
  9  6  1  0  0  0  0
 11 12  1  0  0  0  0
 12 13  1  6  0  0  0
 12 14  1  0  0  0  0
 14 16  1  0  0  0  0
 14 17  1  0  0  0  0
 15 14  1  0  0  0  0
M  END
>  <MODEL>
4

>  <REMARK>
 VINA RESULT:    -4.897      5.507      7.454
 INTER + INTRA:          -6.311
 INTER:                  -6.075
 INTRA:                  -0.236
 UNBOUND:                -0.269
  Name = CHEMBL3544653
  7 active torsions:
  status: ('A' for Active; 'I' for Inactive)
    1  A    between atoms: C_1  and  O_2
    2  A    between atoms: O_2  and  C_3
    3  A    between atoms: C_5  and  C_6
    4  A    between atoms: C_6  and  C_7
    5  A    between atoms: C_7  and  C_8
    6  A    between atoms: C_7  and  N_9
    7  A    between atoms: C_12  and  O_13
                            x       y       z     vdW  Elec       q    Type
                         _______ _______ _______ _____ _____    ______ ____

>  <TORSDO>
F 5

>  <SCORE>
-4.897

>  <RMSD_LB>
5.507

>  <RMSD_UB>
7.454

$$$$
CHEMBL3544653
 OpenBabel10162523343D

 17 17  0  0  1  0  0  0  0  0999 V2000
  147.2110  139.9230  154.0600 C   0  0  0  0  0  0  0  0  0  0  0  0
  146.1110  139.5580  153.2710 C   0  0  0  0  0  3  0  0  0  0  0  0
  145.3800  140.5160  152.5520 C   0  0  0  0  0  0  0  0  0  0  0  0
  145.7920  141.8580  152.6170 C   0  0  0  0  0  3  0  0  0  0  0  0
  146.8880  142.2350  153.3930 C   0  0  0  0  0  3  0  0  0  0  0  0
  147.5920  141.2710  154.1070 C   0  0  0  0  0  0  0  0  0  0  0  0
  147.3710  138.4590  155.9380 C   0  0  0  0  0  1  0  0  0  0  0  0
  147.9740  139.0530  154.7960 O   0  0  0  0  0  0  0  0  0  0  0  0
  148.6740  141.6360  154.8630 O   0  0  0  0  0  0  0  0  0  0  0  0
  148.8590  141.1880  155.6650 H   0  0  0  0  0  0  0  0  0  0  0  0
  144.2310  140.1610  151.6250 C   0  0  0  0  0  2  0  0  0  0  0  0
  143.1170  139.2230  152.1520 C   0  0  2  0  0  3  0  0  0  0  0  0
  141.8980  139.2930  151.2280 C   0  0  0  0  0  1  0  0  0  0  0  0
  142.6910  139.5520  153.5170 N   0  0  0  0  0  4  0  0  0  0  0  0
  142.7500  138.7180  154.1010 H   0  0  0  0  0  0  0  0  0  0  0  0
  141.7290  139.8890  153.5020 H   0  0  0  0  0  0  0  0  0  0  0  0
  143.3000  140.2770  153.8980 H   0  0  0  0  0  0  0  0  0  0  0  0
  1  6  1  0  0  0  0
  1  8  1  0  0  0  0
  2  1  2  0  0  0  0
  3  4  2  0  0  0  0
  3  2  1  0  0  0  0
  4  5  1  0  0  0  0
  5  6  2  0  0  0  0
  6  9  1  0  0  0  0
  8  7  1  0  0  0  0
  9 10  1  0  0  0  0
 11 12  1  0  0  0  0
 11  3  1  0  0  0  0
 12 13  1  6  0  0  0
 12 14  1  0  0  0  0
 14 17  1  0  0  0  0
 14 15  1  0  0  0  0
 16 14  1  0  0  0  0
M  END
>  <MODEL>
5

>  <REMARK>
 VINA RESULT:    -4.820      3.082      4.820
 INTER + INTRA:          -6.215
 INTER:                  -6.056
 INTRA:                  -0.159
 UNBOUND:                -0.269
  Name = CHEMBL3544653
  7 active torsions:
  status: ('A' for Active; 'I' for Inactive)
    1  A    between atoms: C_1  and  O_2
    2  A    between atoms: O_2  and  C_3
    3  A    between atoms: C_5  and  C_6
    4  A    between atoms: C_6  and  C_7
    5  A    between atoms: C_7  and  C_8
    6  A    between atoms: C_7  and  N_9
    7  A    between atoms: C_12  and  O_13
                            x       y       z     vdW  Elec       q    Type
                         _______ _______ _______ _____ _____    ______ ____

>  <TORSDO>
F 5

>  <SCORE>
-4.820

>  <RMSD_LB>
3.082

>  <RMSD_UB>
4.820

$$$$
CHEMBL3544653
 OpenBabel10162523343D

 17 17  0  0  1  0  0  0  0  0999 V2000
  146.5800  140.3200  149.8420 C   0  0  0  0  0  0  0  0  0  0  0  0
  146.5720  140.0170  151.2110 C   0  0  0  0  0  3  0  0  0  0  0  0
  146.3420  141.0100  152.1760 C   0  0  0  0  0  0  0  0  0  0  0  0
  146.0910  142.3220  151.7370 C   0  0  0  0  0  3  0  0  0  0  0  0
  146.0900  142.6370  150.3780 C   0  0  0  0  0  3  0  0  0  0  0  0
  146.3320  141.6390  149.4390 C   0  0  0  0  0  0  0  0  0  0  0  0
  146.6200  138.0380  149.1460 C   0  0  0  0  0  1  0  0  0  0  0  0
  146.8020  139.4130  148.8380 O   0  0  0  0  0  0  0  0  0  0  0  0
  146.3240  141.9430  148.1040 O   0  0  0  0  0  0  0  0  0  0  0  0
  146.1750  141.2680  147.4710 H   0  0  0  0  0  0  0  0  0  0  0  0
  146.2460  140.7190  153.6630 C   0  0  0  0  0  2  0  0  0  0  0  0
  147.2840  139.7600  154.2970 C   0  0  2  0  0  3  0  0  0  0  0  0
  146.5960  138.8590  155.3260 C   0  0  0  0  0  1  0  0  0  0  0  0
  148.3900  140.4660  154.9530 N   0  0  0  0  0  4  0  0  0  0  0  0
  149.1040  139.7930  155.2300 H   0  0  0  0  0  0  0  0  0  0  0  0
  148.0410  140.9510  155.7790 H   0  0  0  0  0  0  0  0  0  0  0  0
  148.7930  141.1430  154.3060 H   0  0  0  0  0  0  0  0  0  0  0  0
  1  2  1  0  0  0  0
  2  3  2  0  0  0  0
  3 11  1  0  0  0  0
  4  3  1  0  0  0  0
  5  4  2  0  0  0  0
  6  1  2  0  0  0  0
  6  5  1  0  0  0  0
  8  7  1  0  0  0  0
  8  1  1  0  0  0  0
  9  6  1  0  0  0  0
 10  9  1  0  0  0  0
 11 12  1  0  0  0  0
 12 14  1  0  0  0  0
 12 13  1  1  0  0  0
 14 15  1  0  0  0  0
 14 16  1  0  0  0  0
 17 14  1  0  0  0  0
M  END
>  <MODEL>
6

>  <REMARK>
 VINA RESULT:    -4.766      1.933      2.350
 INTER + INTRA:          -6.149
 INTER:                  -5.947
 INTRA:                  -0.203
 UNBOUND:                -0.269
  Name = CHEMBL3544653
  7 active torsions:
  status: ('A' for Active; 'I' for Inactive)
    1  A    between atoms: C_1  and  O_2
    2  A    between atoms: O_2  and  C_3
    3  A    between atoms: C_5  and  C_6
    4  A    between atoms: C_6  and  C_7
    5  A    between atoms: C_7  and  C_8
    6  A    between atoms: C_7  and  N_9
    7  A    between atoms: C_12  and  O_13
                            x       y       z     vdW  Elec       q    Type
                         _______ _______ _______ _____ _____    ______ ____

>  <TORSDO>
F 5

>  <SCORE>
-4.766

>  <RMSD_LB>
1.933

>  <RMSD_UB>
2.350

$$$$
CHEMBL3544653
 OpenBabel10162523343D

 17 17  0  0  1  0  0  0  0  0999 V2000
  134.7140  135.1360  150.6320 C   0  0  0  0  0  0  0  0  0  0  0  0
  135.2690  134.8990  149.3670 C   0  0  0  0  0  3  0  0  0  0  0  0
  134.9160  133.7680  148.6150 C   0  0  0  0  0  0  0  0  0  0  0  0
  133.9650  132.8810  149.1500 C   0  0  0  0  0  3  0  0  0  0  0  0
  133.4000  133.1070  150.4050 C   0  0  0  0  0  3  0  0  0  0  0  0
  133.7740  134.2290  151.1380 C   0  0  0  0  0  0  0  0  0  0  0  0
  136.3290  136.3000  151.9480 C   0  0  0  0  0  1  0  0  0  0  0  0
  135.0080  136.2110  151.4310 O   0  0  0  0  0  0  0  0  0  0  0  0
  133.2140  134.4590  152.3670 O   0  0  0  0  0  0  0  0  0  0  0  0
  133.4490  133.9200  153.0970 H   0  0  0  0  0  0  0  0  0  0  0  0
  135.4310  133.5080  147.2110 C   0  0  0  0  0  2  0  0  0  0  0  0
  134.4130  133.4850  146.0430 C   0  0  2  0  0  3  0  0  0  0  0  0
  135.0880  132.9490  144.7770 C   0  0  0  0  0  1  0  0  0  0  0  0
  133.8470  134.8070  145.7510 N   0  0  0  0  0  4  0  0  0  0  0  0
  133.5360  135.2410  146.6200 H   0  0  0  0  0  0  0  0  0  0  0  0
  133.0540  134.7060  145.1180 H   0  0  0  0  0  0  0  0  0  0  0  0
  134.5590  135.3930  145.3140 H   0  0  0  0  0  0  0  0  0  0  0  0
  1  6  1  0  0  0  0
  1  8  1  0  0  0  0
  2  1  2  0  0  0  0
  3  4  2  0  0  0  0
  3  2  1  0  0  0  0
  4  5  1  0  0  0  0
  5  6  2  0  0  0  0
  6  9  1  0  0  0  0
  8  7  1  0  0  0  0
  9 10  1  0  0  0  0
 11  3  1  0  0  0  0
 12 13  1  6  0  0  0
 12 11  1  0  0  0  0
 14 12  1  0  0  0  0
 14 15  1  0  0  0  0
 16 14  1  0  0  0  0
 17 14  1  0  0  0  0
M  END
>  <MODEL>
7

>  <REMARK>
 VINA RESULT:    -4.559     12.621     15.313
 INTER + INTRA:          -5.894
 INTER:                  -5.658
 INTRA:                  -0.236
 UNBOUND:                -0.269
  Name = CHEMBL3544653
  7 active torsions:
  status: ('A' for Active; 'I' for Inactive)
    1  A    between atoms: C_1  and  O_2
    2  A    between atoms: O_2  and  C_3
    3  A    between atoms: C_5  and  C_6
    4  A    between atoms: C_6  and  C_7
    5  A    between atoms: C_7  and  C_8
    6  A    between atoms: C_7  and  N_9
    7  A    between atoms: C_12  and  O_13
                            x       y       z     vdW  Elec       q    Type
                         _______ _______ _______ _____ _____    ______ ____

>  <TORSDO>
F 5

>  <SCORE>
-4.559

>  <RMSD_LB>
12.621

>  <RMSD_UB>
15.313

$$$$
CHEMBL3544653
 OpenBabel10162523343D

 17 17  0  0  1  0  0  0  0  0999 V2000
  134.6330  134.7700  147.9270 C   0  0  0  0  0  0  0  0  0  0  0  0
  135.2680  135.0230  149.1510 C   0  0  0  0  0  3  0  0  0  0  0  0
  135.0580  134.1970  150.2670 C   0  0  0  0  0  0  0  0  0  0  0  0
  134.2130  133.0840  150.1230 C   0  0  0  0  0  3  0  0  0  0  0  0
  133.5790  132.8160  148.9100 C   0  0  0  0  0  3  0  0  0  0  0  0
  133.7910  133.6550  147.8200 C   0  0  0  0  0  0  0  0  0  0  0  0
  136.0170  135.4410  146.1030 C   0  0  0  0  0  1  0  0  0  0  0  0
  134.7790  135.5280  146.7950 O   0  0  0  0  0  0  0  0  0  0  0  0
  133.1780  133.3890  146.6250 O   0  0  0  0  0  0  0  0  0  0  0  0
  132.3680  133.8070  146.4110 H   0  0  0  0  0  0  0  0  0  0  0  0
  135.7810  134.3850  151.5890 C   0  0  0  0  0  2  0  0  0  0  0  0
  135.4180  135.6120  152.4620 C   0  0  2  0  0  3  0  0  0  0  0  0
  135.8840  135.3800  153.9020 C   0  0  0  0  0  1  0  0  0  0  0  0
  133.9800  135.9020  152.4730 N   0  0  0  0  0  4  0  0  0  0  0  0
  133.8040  136.7240  153.0490 H   0  0  0  0  0  0  0  0  0  0  0  0
  133.4750  135.1040  152.8560 H   0  0  0  0  0  0  0  0  0  0  0  0
  133.6620  136.0800  151.5200 H   0  0  0  0  0  0  0  0  0  0  0  0
  1  2  1  0  0  0  0
  2  3  2  0  0  0  0
  3 11  1  0  0  0  0
  4  3  1  0  0  0  0
  5  4  2  0  0  0  0
  6  1  2  0  0  0  0
  6  5  1  0  0  0  0
  7  8  1  0  0  0  0
  8  1  1  0  0  0  0
  9  6  1  0  0  0  0
 10  9  1  0  0  0  0
 11 12  1  0  0  0  0
 12 14  1  0  0  0  0
 12 13  1  1  0  0  0
 14 16  1  0  0  0  0
 14 15  1  0  0  0  0
 17 14  1  0  0  0  0
M  END
>  <MODEL>
8

>  <REMARK>
 VINA RESULT:    -4.532     13.113     14.469
 INTER + INTRA:          -5.861
 INTER:                  -5.627
 INTRA:                  -0.234
 UNBOUND:                -0.269
  Name = CHEMBL3544653
  7 active torsions:
  status: ('A' for Active; 'I' for Inactive)
    1  A    between atoms: C_1  and  O_2
    2  A    between atoms: O_2  and  C_3
    3  A    between atoms: C_5  and  C_6
    4  A    between atoms: C_6  and  C_7
    5  A    between atoms: C_7  and  C_8
    6  A    between atoms: C_7  and  N_9
    7  A    between atoms: C_12  and  O_13
                            x       y       z     vdW  Elec       q    Type
                         _______ _______ _______ _____ _____    ______ ____

>  <TORSDO>
F 5

>  <SCORE>
-4.532

>  <RMSD_LB>
13.113

>  <RMSD_UB>
14.469

$$$$
CHEMBL3544653
 OpenBabel10162523343D

 17 17  0  0  1  0  0  0  0  0999 V2000
  141.7210  137.9730  153.7100 C   0  0  0  0  0  0  0  0  0  0  0  0
  140.7650  137.8340  152.6940 C   0  0  0  0  0  3  0  0  0  0  0  0
  141.1300  137.4320  151.3990 C   0  0  0  0  0  0  0  0  0  0  0  0
  142.4820  137.1420  151.1460 C   0  0  0  0  0  3  0  0  0  0  0  0
  143.4430  137.2700  152.1490 C   0  0  0  0  0  3  0  0  0  0  0  0
  143.0610  137.6820  153.4220 C   0  0  0  0  0  0  0  0  0  0  0  0
  140.1200  138.1950  155.4650 C   0  0  0  0  0  1  0  0  0  0  0  0
  141.4500  138.3650  154.9960 O   0  0  0  0  0  0  0  0  0  0  0  0
  144.0010  137.8000  154.4120 O   0  0  0  0  0  0  0  0  0  0  0  0
  144.8470  137.4130  154.3020 H   0  0  0  0  0  0  0  0  0  0  0  0
  140.1240  137.1940  150.2870 C   0  0  0  0  0  2  0  0  0  0  0  0
  140.1770  138.1010  149.0340 C   0  0  2  0  0  3  0  0  0  0  0  0
  139.9360  139.5580  149.4370 C   0  0  0  0  0  1  0  0  0  0  0  0
  139.1930  137.7260  148.0130 N   0  0  0  0  0  4  0  0  0  0  0  0
  139.6680  137.2730  147.2330 H   0  0  0  0  0  0  0  0  0  0  0  0
  138.7120  138.5610  147.6790 H   0  0  0  0  0  0  0  0  0  0  0  0
  138.5130  137.0810  148.4170 H   0  0  0  0  0  0  0  0  0  0  0  0
  1  8  1  0  0  0  0
  2  1  2  0  0  0  0
  3  2  1  0  0  0  0
  4  3  2  0  0  0  0
  4  5  1  0  0  0  0
  5  6  2  0  0  0  0
  6  1  1  0  0  0  0
  6  9  1  0  0  0  0
  8  7  1  0  0  0  0
 10  9  1  0  0  0  0
 11  3  1  0  0  0  0
 12 13  1  1  0  0  0
 12 11  1  0  0  0  0
 14 17  1  0  0  0  0
 14 12  1  0  0  0  0
 15 14  1  0  0  0  0
 16 14  1  0  0  0  0
M  END
>  <MODEL>
9

>  <REMARK>
 VINA RESULT:    -4.139      6.494      8.078
 INTER + INTRA:          -5.375
 INTER:                  -5.107
 INTRA:                  -0.269
 UNBOUND:                -0.269
  Name = CHEMBL3544653
  7 active torsions:
  status: ('A' for Active; 'I' for Inactive)
    1  A    between atoms: C_1  and  O_2
    2  A    between atoms: O_2  and  C_3
    3  A    between atoms: C_5  and  C_6
    4  A    between atoms: C_6  and  C_7
    5  A    between atoms: C_7  and  C_8
    6  A    between atoms: C_7  and  N_9
    7  A    between atoms: C_12  and  O_13
                            x       y       z     vdW  Elec       q    Type
                         _______ _______ _______ _____ _____    ______ ____

>  <TORSDO>
F 5

>  <SCORE>
-4.139

>  <RMSD_LB>
6.494

>  <RMSD_UB>
8.078

$$$$
