CHEMBL1898598
 OpenBabel10172500093D

 29 30  0  0  0  0  0  0  0  0999 V2000
  149.5790  136.5200  156.9000 N   0  0  0  0  0  0  0  0  0  0  0  0
  148.6700  137.2400  157.6450 C   0  0  0  0  0  0  0  0  0  0  0  0
  148.5720  137.1400  158.8660 O   0  0  0  0  0  0  0  0  0  0  0  0
  149.6220  136.6170  155.9210 H   0  0  0  0  0  0  0  0  0  0  0  0
  151.6120  135.2420  156.9780 C   0  0  0  0  0  0  0  0  0  0  0  0
  151.9270  135.6070  155.8450 O   0  0  0  0  0  0  0  0  0  0  0  0
  150.4350  135.6470  157.5690 N   0  0  0  0  0  0  0  0  0  0  0  0
  150.1990  135.3200  158.4670 H   0  0  0  0  0  0  0  0  0  0  0  0
  152.2120  133.0310  158.1560 C   0  0  0  0  0  0  0  0  0  0  0  0
  153.1080  132.3180  158.9660 C   0  0  0  0  0  3  0  0  0  0  0  0
  154.2980  132.9060  159.4020 C   0  0  0  0  0  3  0  0  0  0  0  0
  154.6130  134.2060  159.0270 C   0  0  0  0  0  3  0  0  0  0  0  0
  153.7280  134.9290  158.2240 C   0  0  0  0  0  3  0  0  0  0  0  0
  152.5190  134.3580  157.7860 C   0  0  0  0  0  0  0  0  0  0  0  0
  151.1780  131.6190  156.5270 C   0  0  0  0  0  1  0  0  0  0  0  0
  151.0610  132.4740  157.6590 O   0  0  0  0  0  0  0  0  0  0  0  0
  147.7810  138.1470  156.8300 C   0  0  0  0  0  2  0  0  0  0  0  0
  147.8590  137.8040  155.3440 C   0  0  0  0  0  2  0  0  0  0  0  0
  148.4380  138.9610  154.5560 C   0  0  0  0  0  0  0  0  0  0  0  0
  149.2410  138.8030  153.6420 O   0  0  0  0  0  0  0  0  0  0  0  0
  148.0030  140.1970  154.9730 N   0  0  0  0  0  0  0  0  0  0  0  0
  147.3240  140.2530  155.6830 H   0  0  0  0  0  0  0  0  0  0  0  0
  148.5190  141.4200  154.3920 C   0  0  0  0  0  2  0  0  0  0  0  0
  147.7640  141.8350  153.1560 C   0  0  0  0  0  0  0  0  0  0  0  0
  148.3880  141.8220  151.8950 C   0  0  0  0  0  3  0  0  0  0  0  0
  147.6640  142.1290  150.7430 C   0  0  0  0  0  3  0  0  0  0  0  0
  146.3100  142.4480  150.8310 C   0  0  0  0  0  3  0  0  0  0  0  0
  145.6810  142.4680  152.0730 C   0  0  0  0  0  3  0  0  0  0  0  0
  146.4010  142.1620  153.2290 C   0  0  0  0  0  3  0  0  0  0  0  0
  1  7  1  0  0  0  0
  1  2  1  0  0  0  0
  2  3  2  0  0  0  0
  4  1  1  0  0  0  0
  5  7  1  0  0  0  0
  5 14  1  0  0  0  0
  6  5  2  0  0  0  0
  7  8  1  0  0  0  0
  9 10  1  0  0  0  0
 10 11  2  0  0  0  0
 12 11  1  0  0  0  0
 13 12  2  0  0  0  0
 14  9  2  0  0  0  0
 14 13  1  0  0  0  0
 15 16  1  0  0  0  0
 16  9  1  0  0  0  0
 17  2  1  0  0  0  0
 18 17  1  0  0  0  0
 19 21  1  0  0  0  0
 19 18  1  0  0  0  0
 20 19  2  0  0  0  0
 21 22  1  0  0  0  0
 23 21  1  0  0  0  0
 24 29  1  0  0  0  0
 24 23  1  0  0  0  0
 25 24  2  0  0  0  0
 26 27  2  0  0  0  0
 26 25  1  0  0  0  0
 27 28  1  0  0  0  0
 28 29  2  0  0  0  0
M  END
>  <MODEL>
1

>  <REMARK>
 VINA RESULT:    -8.026      0.000      0.000
 INTER + INTRA:         -12.972
 INTER:                 -11.998
 INTRA:                  -0.974
 UNBOUND:                -1.193
  Name = CHEMBL1898598
  9 active torsions:
  status: ('A' for Active; 'I' for Inactive)
    1  A    between atoms: C_1  and  O_2
    2  A    between atoms: O_2  and  C_3
    3  A    between atoms: C_8  and  C_9
    4  A    between atoms: N_11  and  N_12
    5  A    between atoms: C_13  and  C_15
    6  A    between atoms: C_15  and  C_16
    7  A    between atoms: C_16  and  C_17
    8  A    between atoms: N_19  and  C_20
    9  A    between atoms: C_20  and  C_21
                            x       y       z     vdW  Elec       q    Type
                         _______ _______ _______ _____ _____    ______ ____

>  <TORSDO>
F 8

>  <SCORE>
-8.026

>  <RMSD_LB>
0.000

>  <RMSD_UB>
0.000

$$$$
CHEMBL1898598
 OpenBabel10172500093D

 29 30  0  0  0  0  0  0  0  0999 V2000
  135.8340  135.1180  152.9440 N   0  0  0  0  0  0  0  0  0  0  0  0
  135.5160  135.8400  154.0750 C   0  0  0  0  0  0  0  0  0  0  0  0
  134.4930  136.5130  154.1770 O   0  0  0  0  0  0  0  0  0  0  0  0
  136.6690  134.5990  152.8930 H   0  0  0  0  0  0  0  0  0  0  0  0
  135.2290  135.8980  150.7540 C   0  0  0  0  0  0  0  0  0  0  0  0
  136.2470  136.5850  150.6780 O   0  0  0  0  0  0  0  0  0  0  0  0
  134.9440  135.1450  151.8720 N   0  0  0  0  0  0  0  0  0  0  0  0
  134.1100  134.6240  151.9140 H   0  0  0  0  0  0  0  0  0  0  0  0
  133.9960  134.6540  148.8650 C   0  0  0  0  0  0  0  0  0  0  0  0
  133.1140  134.7160  147.7760 C   0  0  0  0  0  3  0  0  0  0  0  0
  132.4940  135.9180  147.4270 C   0  0  0  0  0  3  0  0  0  0  0  0
  132.7360  137.0690  148.1660 C   0  0  0  0  0  3  0  0  0  0  0  0
  133.6150  137.0220  149.2510 C   0  0  0  0  0  3  0  0  0  0  0  0
  134.2580  135.8230  149.6100 C   0  0  0  0  0  0  0  0  0  0  0  0
  134.2120  132.2880  148.5990 C   0  0  0  0  0  1  0  0  0  0  0  0
  134.5810  133.4830  149.2770 O   0  0  0  0  0  0  0  0  0  0  0  0
  136.5470  135.7570  155.1740 C   0  0  0  0  0  2  0  0  0  0  0  0
  136.4540  136.9640  156.1060 C   0  0  0  0  0  2  0  0  0  0  0  0
  137.3540  138.0830  155.6250 C   0  0  0  0  0  0  0  0  0  0  0  0
  136.9510  139.2300  155.4560 O   0  0  0  0  0  0  0  0  0  0  0  0
  138.6480  137.6940  155.3740 N   0  0  0  0  0  0  0  0  0  0  0  0
  138.9190  136.7680  155.5730 H   0  0  0  0  0  0  0  0  0  0  0  0
  139.6250  138.6120  154.8250 C   0  0  0  0  0  2  0  0  0  0  0  0
  140.1200  138.1840  153.4680 C   0  0  0  0  0  0  0  0  0  0  0  0
  141.4880  137.9350  153.2480 C   0  0  0  0  0  3  0  0  0  0  0  0
  141.9320  137.4610  152.0140 C   0  0  0  0  0  3  0  0  0  0  0  0
  141.0220  137.2250  150.9850 C   0  0  0  0  0  3  0  0  0  0  0  0
  139.6660  137.4700  151.1880 C   0  0  0  0  0  3  0  0  0  0  0  0
  139.2160  137.9450  152.4210 C   0  0  0  0  0  3  0  0  0  0  0  0
  1  2  1  0  0  0  0
  2  3  2  0  0  0  0
  2 17  1  0  0  0  0
  4  1  1  0  0  0  0
  5  7  1  0  0  0  0
  6  5  2  0  0  0  0
  7  8  1  0  0  0  0
  7  1  1  0  0  0  0
  9 16  1  0  0  0  0
  9 14  1  0  0  0  0
 10  9  2  0  0  0  0
 11 10  1  0  0  0  0
 11 12  2  0  0  0  0
 12 13  1  0  0  0  0
 13 14  2  0  0  0  0
 14  5  1  0  0  0  0
 15 16  1  0  0  0  0
 17 18  1  0  0  0  0
 19 18  1  0  0  0  0
 20 19  2  0  0  0  0
 21 22  1  0  0  0  0
 21 19  1  0  0  0  0
 23 21  1  0  0  0  0
 24 23  1  0  0  0  0
 25 24  1  0  0  0  0
 26 25  2  0  0  0  0
 27 28  2  0  0  0  0
 27 26  1  0  0  0  0
 28 29  1  0  0  0  0
 29 24  2  0  0  0  0
M  END
>  <MODEL>
2

>  <REMARK>
 VINA RESULT:    -7.989     12.141     15.622
 INTER + INTRA:         -12.918
 INTER:                 -11.575
 INTRA:                  -1.343
 UNBOUND:                -1.193
  Name = CHEMBL1898598
  9 active torsions:
  status: ('A' for Active; 'I' for Inactive)
    1  A    between atoms: C_1  and  O_2
    2  A    between atoms: O_2  and  C_3
    3  A    between atoms: C_8  and  C_9
    4  A    between atoms: N_11  and  N_12
    5  A    between atoms: C_13  and  C_15
    6  A    between atoms: C_15  and  C_16
    7  A    between atoms: C_16  and  C_17
    8  A    between atoms: N_19  and  C_20
    9  A    between atoms: C_20  and  C_21
                            x       y       z     vdW  Elec       q    Type
                         _______ _______ _______ _____ _____    ______ ____

>  <TORSDO>
F 8

>  <SCORE>
-7.989

>  <RMSD_LB>
12.141

>  <RMSD_UB>
15.622

$$$$
CHEMBL1898598
 OpenBabel10172500093D

 29 30  0  0  0  0  0  0  0  0999 V2000
  145.1980  137.3570  153.5720 N   0  0  0  0  0  0  0  0  0  0  0  0
  146.5050  137.0870  153.2280 C   0  0  0  0  0  0  0  0  0  0  0  0
  146.8610  136.8390  152.0770 O   0  0  0  0  0  0  0  0  0  0  0  0
  144.9490  137.5400  154.5070 H   0  0  0  0  0  0  0  0  0  0  0  0
  142.9600  137.8030  152.8240 C   0  0  0  0  0  0  0  0  0  0  0  0
  142.6210  138.1750  153.9480 O   0  0  0  0  0  0  0  0  0  0  0  0
  144.2380  137.3600  152.5630 N   0  0  0  0  0  0  0  0  0  0  0  0
  144.4740  137.0470  151.6600 H   0  0  0  0  0  0  0  0  0  0  0  0
  142.3170  138.3330  150.3870 C   0  0  0  0  0  0  0  0  0  0  0  0
  141.3200  138.3830  149.4020 C   0  0  0  0  0  3  0  0  0  0  0  0
  140.0200  137.9520  149.6800 C   0  0  0  0  0  3  0  0  0  0  0  0
  139.7040  137.4560  150.9390 C   0  0  0  0  0  3  0  0  0  0  0  0
  140.6860  137.4050  151.9290 C   0  0  0  0  0  3  0  0  0  0  0  0
  141.9970  137.8460  151.6710 C   0  0  0  0  0  0  0  0  0  0  0  0
  143.8430  139.8030  149.2790 C   0  0  0  0  0  1  0  0  0  0  0  0
  143.6180  138.6920  150.1390 O   0  0  0  0  0  0  0  0  0  0  0  0
  147.4680  137.0940  154.3900 C   0  0  0  0  0  2  0  0  0  0  0  0
  147.2060  138.2820  155.3140 C   0  0  0  0  0  2  0  0  0  0  0  0
  147.7950  139.5510  154.7340 C   0  0  0  0  0  0  0  0  0  0  0  0
  148.9720  139.6430  154.4010 O   0  0  0  0  0  0  0  0  0  0  0  0
  146.9020  140.5930  154.6390 N   0  0  0  0  0  0  0  0  0  0  0  0
  145.9600  140.4410  154.8820 H   0  0  0  0  0  0  0  0  0  0  0  0
  147.3120  141.9070  154.1900 C   0  0  0  0  0  2  0  0  0  0  0  0
  147.0870  142.1090  152.7140 C   0  0  0  0  0  0  0  0  0  0  0  0
  145.8040  142.4030  152.2160 C   0  0  0  0  0  3  0  0  0  0  0  0
  145.6130  142.6690  150.8610 C   0  0  0  0  0  3  0  0  0  0  0  0
  146.6970  142.6520  149.9850 C   0  0  0  0  0  3  0  0  0  0  0  0
  147.9720  142.3600  150.4630 C   0  0  0  0  0  3  0  0  0  0  0  0
  148.1680  142.0920  151.8190 C   0  0  0  0  0  3  0  0  0  0  0  0
  1  4  1  0  0  0  0
  2  1  1  0  0  0  0
  2 17  1  0  0  0  0
  3  2  2  0  0  0  0
  5  6  2  0  0  0  0
  7  5  1  0  0  0  0
  7  1  1  0  0  0  0
  8  7  1  0  0  0  0
  9 14  1  0  0  0  0
 10 11  1  0  0  0  0
 10  9  2  0  0  0  0
 11 12  2  0  0  0  0
 12 13  1  0  0  0  0
 14 13  2  0  0  0  0
 14  5  1  0  0  0  0
 15 16  1  0  0  0  0
 16  9  1  0  0  0  0
 17 18  1  0  0  0  0
 19 18  1  0  0  0  0
 20 19  2  0  0  0  0
 21 19  1  0  0  0  0
 21 22  1  0  0  0  0
 23 21  1  0  0  0  0
 24 23  1  0  0  0  0
 25 24  1  0  0  0  0
 26 25  2  0  0  0  0
 27 28  2  0  0  0  0
 27 26  1  0  0  0  0
 28 29  1  0  0  0  0
 29 24  2  0  0  0  0
M  END
>  <MODEL>
3

>  <REMARK>
 VINA RESULT:    -7.936      5.158      9.160
 INTER + INTRA:         -12.841
 INTER:                 -11.451
 INTRA:                  -1.390
 UNBOUND:                -1.193
  Name = CHEMBL1898598
  9 active torsions:
  status: ('A' for Active; 'I' for Inactive)
    1  A    between atoms: C_1  and  O_2
    2  A    between atoms: O_2  and  C_3
    3  A    between atoms: C_8  and  C_9
    4  A    between atoms: N_11  and  N_12
    5  A    between atoms: C_13  and  C_15
    6  A    between atoms: C_15  and  C_16
    7  A    between atoms: C_16  and  C_17
    8  A    between atoms: N_19  and  C_20
    9  A    between atoms: C_20  and  C_21
                            x       y       z     vdW  Elec       q    Type
                         _______ _______ _______ _____ _____    ______ ____

>  <TORSDO>
F 8

>  <SCORE>
-7.936

>  <RMSD_LB>
5.158

>  <RMSD_UB>
9.160

$$$$
CHEMBL1898598
 OpenBabel10172500093D

 29 30  0  0  0  0  0  0  0  0999 V2000
  141.4030  139.3130  151.9970 N   0  0  0  0  0  0  0  0  0  0  0  0
  141.1250  139.6170  150.6820 C   0  0  0  0  0  0  0  0  0  0  0  0
  139.9920  139.5710  150.2060 O   0  0  0  0  0  0  0  0  0  0  0  0
  142.3250  139.3500  152.3410 H   0  0  0  0  0  0  0  0  0  0  0  0
  140.5760  138.1830  153.9480 C   0  0  0  0  0  0  0  0  0  0  0  0
  141.7010  137.7730  154.2320 O   0  0  0  0  0  0  0  0  0  0  0  0
  140.3450  138.9500  152.8280 N   0  0  0  0  0  0  0  0  0  0  0  0
  139.4300  139.2440  152.6140 H   0  0  0  0  0  0  0  0  0  0  0  0
  138.0860  137.6740  154.3680 C   0  0  0  0  0  0  0  0  0  0  0  0
  137.0510  137.4690  155.2930 C   0  0  0  0  0  3  0  0  0  0  0  0
  137.3110  137.4730  156.6660 C   0  0  0  0  0  3  0  0  0  0  0  0
  138.6050  137.6690  157.1310 C   0  0  0  0  0  3  0  0  0  0  0  0
  139.6430  137.8780  156.2220 C   0  0  0  0  0  3  0  0  0  0  0  0
  139.3990  137.8900  154.8360 C   0  0  0  0  0  0  0  0  0  0  0  0
  136.9540  136.6630  152.5200 C   0  0  0  0  0  1  0  0  0  0  0  0
  137.8850  137.6210  153.0120 O   0  0  0  0  0  0  0  0  0  0  0  0
  142.3360  139.9860  149.8600 C   0  0  0  0  0  2  0  0  0  0  0  0
  143.6150  139.4380  150.4900 C   0  0  0  0  0  2  0  0  0  0  0  0
  144.7940  140.3360  150.1760 C   0  0  0  0  0  0  0  0  0  0  0  0
  145.7090  139.9920  149.4350 O   0  0  0  0  0  0  0  0  0  0  0  0
  144.7580  141.5540  150.8140 N   0  0  0  0  0  0  0  0  0  0  0  0
  143.9730  141.7860  151.3610 H   0  0  0  0  0  0  0  0  0  0  0  0
  145.8450  142.5040  150.7000 C   0  0  0  0  0  2  0  0  0  0  0  0
  146.8750  142.3360  151.7870 C   0  0  0  0  0  0  0  0  0  0  0  0
  146.4850  142.2220  153.1350 C   0  0  0  0  0  3  0  0  0  0  0  0
  147.4340  141.9860  154.1290 C   0  0  0  0  0  3  0  0  0  0  0  0
  148.7800  141.8550  153.7950 C   0  0  0  0  0  3  0  0  0  0  0  0
  149.1810  141.9680  152.4660 C   0  0  0  0  0  3  0  0  0  0  0  0
  148.2350  142.2050  151.4660 C   0  0  0  0  0  3  0  0  0  0  0  0
  1  4  1  0  0  0  0
  1  7  1  0  0  0  0
  2  1  1  0  0  0  0
  3  2  2  0  0  0  0
  5  6  2  0  0  0  0
  5 14  1  0  0  0  0
  7  5  1  0  0  0  0
  8  7  1  0  0  0  0
  9 14  2  0  0  0  0
  9 10  1  0  0  0  0
 10 11  2  0  0  0  0
 11 12  1  0  0  0  0
 13 12  2  0  0  0  0
 14 13  1  0  0  0  0
 15 16  1  0  0  0  0
 16  9  1  0  0  0  0
 17 18  1  0  0  0  0
 17  2  1  0  0  0  0
 19 18  1  0  0  0  0
 19 21  1  0  0  0  0
 20 19  2  0  0  0  0
 21 22  1  0  0  0  0
 23 21  1  0  0  0  0
 23 24  1  0  0  0  0
 24 25  1  0  0  0  0
 25 26  2  0  0  0  0
 27 26  1  0  0  0  0
 28 27  2  0  0  0  0
 29 24  2  0  0  0  0
 29 28  1  0  0  0  0
M  END
>  <MODEL>
4

>  <REMARK>
 VINA RESULT:    -7.718      7.624     10.814
 INTER + INTRA:         -12.521
 INTER:                 -11.514
 INTRA:                  -1.006
 UNBOUND:                -1.193
  Name = CHEMBL1898598
  9 active torsions:
  status: ('A' for Active; 'I' for Inactive)
    1  A    between atoms: C_1  and  O_2
    2  A    between atoms: O_2  and  C_3
    3  A    between atoms: C_8  and  C_9
    4  A    between atoms: N_11  and  N_12
    5  A    between atoms: C_13  and  C_15
    6  A    between atoms: C_15  and  C_16
    7  A    between atoms: C_16  and  C_17
    8  A    between atoms: N_19  and  C_20
    9  A    between atoms: C_20  and  C_21
                            x       y       z     vdW  Elec       q    Type
                         _______ _______ _______ _____ _____    ______ ____

>  <TORSDO>
F 8

>  <SCORE>
-7.718

>  <RMSD_LB>
7.624

>  <RMSD_UB>
10.814

$$$$
CHEMBL1898598
 OpenBabel10172500093D

 29 30  0  0  0  0  0  0  0  0999 V2000
  142.1950  139.5690  152.4400 N   0  0  0  0  0  0  0  0  0  0  0  0
  141.9700  138.2160  152.5760 C   0  0  0  0  0  0  0  0  0  0  0  0
  142.8750  137.3860  152.6380 O   0  0  0  0  0  0  0  0  0  0  0  0
  141.4440  140.2040  152.3830 H   0  0  0  0  0  0  0  0  0  0  0  0
  144.0810  140.3480  151.1730 C   0  0  0  0  0  0  0  0  0  0  0  0
  143.4620  140.2330  150.1150 O   0  0  0  0  0  0  0  0  0  0  0  0
  143.5140  140.0150  152.3830 N   0  0  0  0  0  0  0  0  0  0  0  0
  144.0410  140.0950  153.2110 H   0  0  0  0  0  0  0  0  0  0  0  0
  146.5380  140.3310  151.9480 C   0  0  0  0  0  0  0  0  0  0  0  0
  147.7930  140.9570  151.9410 C   0  0  0  0  0  3  0  0  0  0  0  0
  148.0070  142.1190  151.1970 C   0  0  0  0  0  3  0  0  0  0  0  0
  146.9760  142.6640  150.4410 C   0  0  0  0  0  3  0  0  0  0  0  0
  145.7200  142.0530  150.4410 C   0  0  0  0  0  3  0  0  0  0  0  0
  145.4830  140.8890  151.1950 C   0  0  0  0  0  0  0  0  0  0  0  0
  147.0290  138.0060  152.2090 C   0  0  0  0  0  1  0  0  0  0  0  0
  146.3010  139.1580  152.6180 O   0  0  0  0  0  0  0  0  0  0  0  0
  140.5110  137.8300  152.6160 C   0  0  0  0  0  2  0  0  0  0  0  0
  139.6660  138.9410  153.2370 C   0  0  0  0  0  2  0  0  0  0  0  0
  139.0120  138.4640  154.5180 C   0  0  0  0  0  0  0  0  0  0  0  0
  139.5950  138.4610  155.5970 O   0  0  0  0  0  0  0  0  0  0  0  0
  137.7230  138.0150  154.3560 N   0  0  0  0  0  0  0  0  0  0  0  0
  137.2970  138.0860  153.4720 H   0  0  0  0  0  0  0  0  0  0  0  0
  136.9740  137.4420  155.4560 C   0  0  0  0  0  2  0  0  0  0  0  0
  136.1980  136.2170  155.0500 C   0  0  0  0  0  0  0  0  0  0  0  0
  135.4300  135.5070  155.9920 C   0  0  0  0  0  3  0  0  0  0  0  0
  134.6490  134.4220  155.5960 C   0  0  0  0  0  3  0  0  0  0  0  0
  134.6170  134.0320  154.2580 C   0  0  0  0  0  3  0  0  0  0  0  0
  135.3750  134.7240  153.3160 C   0  0  0  0  0  3  0  0  0  0  0  0
  136.1590  135.8100  153.7070 C   0  0  0  0  0  3  0  0  0  0  0  0
  1  2  1  0  0  0  0
  2 17  1  0  0  0  0
  2  3  2  0  0  0  0
  4  1  1  0  0  0  0
  5 14  1  0  0  0  0
  5  7  1  0  0  0  0
  6  5  2  0  0  0  0
  7  1  1  0  0  0  0
  7  8  1  0  0  0  0
  9 16  1  0  0  0  0
 10  9  1  0  0  0  0
 11 10  2  0  0  0  0
 12 13  2  0  0  0  0
 12 11  1  0  0  0  0
 13 14  1  0  0  0  0
 14  9  2  0  0  0  0
 15 16  1  0  0  0  0
 17 18  1  0  0  0  0
 18 19  1  0  0  0  0
 19 20  2  0  0  0  0
 21 19  1  0  0  0  0
 21 23  1  0  0  0  0
 22 21  1  0  0  0  0
 24 23  1  0  0  0  0
 24 25  1  0  0  0  0
 26 25  2  0  0  0  0
 27 26  1  0  0  0  0
 28 29  1  0  0  0  0
 28 27  2  0  0  0  0
 29 24  2  0  0  0  0
M  END
>  <MODEL>
5

>  <REMARK>
 VINA RESULT:    -7.553      8.061     11.576
 INTER + INTRA:         -12.279
 INTER:                 -11.272
 INTRA:                  -1.007
 UNBOUND:                -1.193
  Name = CHEMBL1898598
  9 active torsions:
  status: ('A' for Active; 'I' for Inactive)
    1  A    between atoms: C_1  and  O_2
    2  A    between atoms: O_2  and  C_3
    3  A    between atoms: C_8  and  C_9
    4  A    between atoms: N_11  and  N_12
    5  A    between atoms: C_13  and  C_15
    6  A    between atoms: C_15  and  C_16
    7  A    between atoms: C_16  and  C_17
    8  A    between atoms: N_19  and  C_20
    9  A    between atoms: C_20  and  C_21
                            x       y       z     vdW  Elec       q    Type
                         _______ _______ _______ _____ _____    ______ ____

>  <TORSDO>
F 8

>  <SCORE>
-7.553

>  <RMSD_LB>
8.061

>  <RMSD_UB>
11.576

$$$$
CHEMBL1898598
 OpenBabel10172500093D

 29 30  0  0  0  0  0  0  0  0999 V2000
  138.3890  138.5670  155.0390 N   0  0  0  0  0  0  0  0  0  0  0  0
  138.3630  138.1680  153.7200 C   0  0  0  0  0  0  0  0  0  0  0  0
  137.5210  137.3940  153.2680 O   0  0  0  0  0  0  0  0  0  0  0  0
  139.0860  139.1800  155.3690 H   0  0  0  0  0  0  0  0  0  0  0  0
  137.6820  137.0230  156.7380 C   0  0  0  0  0  0  0  0  0  0  0  0
  138.7800  136.4670  156.7400 O   0  0  0  0  0  0  0  0  0  0  0  0
  137.4050  138.0770  155.8960 N   0  0  0  0  0  0  0  0  0  0  0  0
  136.5100  138.4870  155.8990 H   0  0  0  0  0  0  0  0  0  0  0  0
  136.3390  137.2070  158.9290 C   0  0  0  0  0  0  0  0  0  0  0  0
  135.3370  136.6830  159.7590 C   0  0  0  0  0  3  0  0  0  0  0  0
  134.5920  135.5700  159.3630 C   0  0  0  0  0  3  0  0  0  0  0  0
  134.8290  134.9730  158.1300 C   0  0  0  0  0  3  0  0  0  0  0  0
  135.8260  135.4820  157.2960 C   0  0  0  0  0  3  0  0  0  0  0  0
  136.5950  136.5950  157.6840 C   0  0  0  0  0  0  0  0  0  0  0  0
  138.0910  138.1970  160.2190 C   0  0  0  0  0  1  0  0  0  0  0  0
  137.0540  138.3310  159.2540 O   0  0  0  0  0  0  0  0  0  0  0  0
  139.4750  138.7410  152.8760 C   0  0  0  0  0  2  0  0  0  0  0  0
  140.6980  137.8260  152.8830 C   0  0  0  0  0  2  0  0  0  0  0  0
  141.6440  138.2050  154.0030 C   0  0  0  0  0  0  0  0  0  0  0  0
  141.4130  137.9490  155.1800 O   0  0  0  0  0  0  0  0  0  0  0  0
  142.7680  138.8790  153.5850 N   0  0  0  0  0  0  0  0  0  0  0  0
  142.9160  139.0130  152.6210 H   0  0  0  0  0  0  0  0  0  0  0  0
  143.7390  139.3950  154.5270 C   0  0  0  0  0  2  0  0  0  0  0  0
  145.0380  138.6330  154.4930 C   0  0  0  0  0  0  0  0  0  0  0  0
  145.0790  137.3020  154.0360 C   0  0  0  0  0  3  0  0  0  0  0  0
  146.2940  136.6270  153.9290 C   0  0  0  0  0  3  0  0  0  0  0  0
  147.4840  137.2680  154.2690 C   0  0  0  0  0  3  0  0  0  0  0  0
  147.4590  138.5840  154.7240 C   0  0  0  0  0  3  0  0  0  0  0  0
  146.2450  139.2650  154.8340 C   0  0  0  0  0  3  0  0  0  0  0  0
  1  4  1  0  0  0  0
  1  7  1  0  0  0  0
  2  1  1  0  0  0  0
  3  2  2  0  0  0  0
  5  6  2  0  0  0  0
  5 14  1  0  0  0  0
  7  8  1  0  0  0  0
  7  5  1  0  0  0  0
  9 16  1  0  0  0  0
  9 10  1  0  0  0  0
 11 10  2  0  0  0  0
 12 11  1  0  0  0  0
 13 14  1  0  0  0  0
 13 12  2  0  0  0  0
 14  9  2  0  0  0  0
 16 15  1  0  0  0  0
 17 18  1  0  0  0  0
 17  2  1  0  0  0  0
 18 19  1  0  0  0  0
 19 20  2  0  0  0  0
 21 19  1  0  0  0  0
 21 23  1  0  0  0  0
 22 21  1  0  0  0  0
 24 23  1  0  0  0  0
 24 29  1  0  0  0  0
 25 24  2  0  0  0  0
 26 25  1  0  0  0  0
 26 27  2  0  0  0  0
 27 28  1  0  0  0  0
 28 29  2  0  0  0  0
M  END
>  <MODEL>
6

>  <REMARK>
 VINA RESULT:    -7.183      8.988     12.216
 INTER + INTRA:         -11.735
 INTER:                 -10.652
 INTRA:                  -1.083
 UNBOUND:                -1.193
  Name = CHEMBL1898598
  9 active torsions:
  status: ('A' for Active; 'I' for Inactive)
    1  A    between atoms: C_1  and  O_2
    2  A    between atoms: O_2  and  C_3
    3  A    between atoms: C_8  and  C_9
    4  A    between atoms: N_11  and  N_12
    5  A    between atoms: C_13  and  C_15
    6  A    between atoms: C_15  and  C_16
    7  A    between atoms: C_16  and  C_17
    8  A    between atoms: N_19  and  C_20
    9  A    between atoms: C_20  and  C_21
                            x       y       z     vdW  Elec       q    Type
                         _______ _______ _______ _____ _____    ______ ____

>  <TORSDO>
F 8

>  <SCORE>
-7.183

>  <RMSD_LB>
8.988

>  <RMSD_UB>
12.216

$$$$
CHEMBL1898598
 OpenBabel10172500093D

 29 30  0  0  0  0  0  0  0  0999 V2000
  141.9970  139.2810  154.5440 N   0  0  0  0  0  0  0  0  0  0  0  0
  141.2510  138.8690  153.4620 C   0  0  0  0  0  0  0  0  0  0  0  0
  141.5770  139.0880  152.2970 O   0  0  0  0  0  0  0  0  0  0  0  0
  141.6990  139.0980  155.4650 H   0  0  0  0  0  0  0  0  0  0  0  0
  144.3640  139.2760  154.1320 C   0  0  0  0  0  0  0  0  0  0  0  0
  144.4120  138.0490  154.2170 O   0  0  0  0  0  0  0  0  0  0  0  0
  143.1850  139.9680  154.3020 N   0  0  0  0  0  0  0  0  0  0  0  0
  143.1820  140.9510  154.2520 H   0  0  0  0  0  0  0  0  0  0  0  0
  146.8020  140.0080  154.5270 C   0  0  0  0  0  0  0  0  0  0  0  0
  147.8650  140.8500  154.1690 C   0  0  0  0  0  3  0  0  0  0  0  0
  147.7380  141.7480  153.1060 C   0  0  0  0  0  3  0  0  0  0  0  0
  146.5550  141.8080  152.3810 C   0  0  0  0  0  3  0  0  0  0  0  0
  145.4870  140.9790  152.7290 C   0  0  0  0  0  3  0  0  0  0  0  0
  145.5920  140.0780  153.8050 C   0  0  0  0  0  0  0  0  0  0  0  0
  147.9590  138.1240  155.4340 C   0  0  0  0  0  1  0  0  0  0  0  0
  146.9030  139.0730  155.5260 O   0  0  0  0  0  0  0  0  0  0  0  0
  139.9780  138.1450  153.8250 C   0  0  0  0  0  2  0  0  0  0  0  0
  139.5510  138.4680  155.2560 C   0  0  0  0  0  2  0  0  0  0  0  0
  138.0970  138.1060  155.4760 C   0  0  0  0  0  0  0  0  0  0  0  0
  137.1810  138.9030  155.2970 O   0  0  0  0  0  0  0  0  0  0  0  0
  137.8990  136.8180  155.9150 N   0  0  0  0  0  0  0  0  0  0  0  0
  138.6730  136.2140  155.9960 H   0  0  0  0  0  0  0  0  0  0  0  0
  136.5810  136.3260  156.2620 C   0  0  0  0  0  2  0  0  0  0  0  0
  136.3820  136.2090  157.7500 C   0  0  0  0  0  0  0  0  0  0  0  0
  136.3240  134.9470  158.3710 C   0  0  0  0  0  3  0  0  0  0  0  0
  136.2200  134.8430  159.7570 C   0  0  0  0  0  3  0  0  0  0  0  0
  136.1780  135.9920  160.5450 C   0  0  0  0  0  3  0  0  0  0  0  0
  136.2320  137.2480  159.9440 C   0  0  0  0  0  3  0  0  0  0  0  0
  136.3350  137.3570  158.5560 C   0  0  0  0  0  3  0  0  0  0  0  0
  1  4  1  0  0  0  0
  2 17  1  0  0  0  0
  2  1  1  0  0  0  0
  3  2  2  0  0  0  0
  5  6  2  0  0  0  0
  5  7  1  0  0  0  0
  7  1  1  0  0  0  0
  8  7  1  0  0  0  0
  9 16  1  0  0  0  0
 10  9  1  0  0  0  0
 11 10  2  0  0  0  0
 12 13  2  0  0  0  0
 12 11  1  0  0  0  0
 13 14  1  0  0  0  0
 14  5  1  0  0  0  0
 14  9  2  0  0  0  0
 15 16  1  0  0  0  0
 17 18  1  0  0  0  0
 18 19  1  0  0  0  0
 19 21  1  0  0  0  0
 20 19  2  0  0  0  0
 21 22  1  0  0  0  0
 21 23  1  0  0  0  0
 23 24  1  0  0  0  0
 24 25  2  0  0  0  0
 24 29  1  0  0  0  0
 25 26  1  0  0  0  0
 26 27  2  0  0  0  0
 28 27  1  0  0  0  0
 29 28  2  0  0  0  0
M  END
>  <MODEL>
7

>  <REMARK>
 VINA RESULT:    -7.112      8.025     11.254
 INTER + INTRA:         -11.631
 INTER:                 -11.122
 INTRA:                  -0.510
 UNBOUND:                -1.193
  Name = CHEMBL1898598
  9 active torsions:
  status: ('A' for Active; 'I' for Inactive)
    1  A    between atoms: C_1  and  O_2
    2  A    between atoms: O_2  and  C_3
    3  A    between atoms: C_8  and  C_9
    4  A    between atoms: N_11  and  N_12
    5  A    between atoms: C_13  and  C_15
    6  A    between atoms: C_15  and  C_16
    7  A    between atoms: C_16  and  C_17
    8  A    between atoms: N_19  and  C_20
    9  A    between atoms: C_20  and  C_21
                            x       y       z     vdW  Elec       q    Type
                         _______ _______ _______ _____ _____    ______ ____

>  <TORSDO>
F 8

>  <SCORE>
-7.112

>  <RMSD_LB>
8.025

>  <RMSD_UB>
11.254

$$$$
CHEMBL1898598
 OpenBabel10172500093D

 29 30  0  0  0  0  0  0  0  0999 V2000
  146.1040  136.9870  152.6850 N   0  0  0  0  0  0  0  0  0  0  0  0
  147.2460  137.7270  152.9010 C   0  0  0  0  0  0  0  0  0  0  0  0
  147.6610  138.5700  152.1080 O   0  0  0  0  0  0  0  0  0  0  0  0
  145.8070  136.3120  153.3380 H   0  0  0  0  0  0  0  0  0  0  0  0
  145.5560  136.3980  150.4220 C   0  0  0  0  0  0  0  0  0  0  0  0
  146.3670  135.4730  150.4280 O   0  0  0  0  0  0  0  0  0  0  0  0
  145.3800  137.2160  151.5160 N   0  0  0  0  0  0  0  0  0  0  0  0
  144.7410  137.9630  151.4740 H   0  0  0  0  0  0  0  0  0  0  0  0
  143.2850  136.5470  149.2150 C   0  0  0  0  0  0  0  0  0  0  0  0
  142.5830  136.7570  148.0180 C   0  0  0  0  0  3  0  0  0  0  0  0
  143.2620  137.0800  146.8410 C   0  0  0  0  0  3  0  0  0  0  0  0
  144.6450  137.2090  146.8450 C   0  0  0  0  0  3  0  0  0  0  0  0
  145.3560  137.0000  148.0280 C   0  0  0  0  0  3  0  0  0  0  0  0
  144.6910  136.6610  149.2210 C   0  0  0  0  0  0  0  0  0  0  0  0
  141.8420  137.3130  150.9610 C   0  0  0  0  0  1  0  0  0  0  0  0
  142.6540  136.2850  150.4050 O   0  0  0  0  0  0  0  0  0  0  0  0
  147.9660  137.3990  154.1860 C   0  0  0  0  0  2  0  0  0  0  0  0
  147.6380  138.4180  155.2750 C   0  0  0  0  0  2  0  0  0  0  0  0
  147.9210  139.8260  154.7940 C   0  0  0  0  0  0  0  0  0  0  0  0
  149.0590  140.2710  154.6820 O   0  0  0  0  0  0  0  0  0  0  0  0
  146.7930  140.5640  154.5200 N   0  0  0  0  0  0  0  0  0  0  0  0
  145.9100  140.1340  154.5880 H   0  0  0  0  0  0  0  0  0  0  0  0
  146.8720  141.9580  154.1340 C   0  0  0  0  0  2  0  0  0  0  0  0
  146.8650  142.1430  152.6390 C   0  0  0  0  0  0  0  0  0  0  0  0
  145.6670  142.4270  151.9550 C   0  0  0  0  0  3  0  0  0  0  0  0
  145.6770  142.6780  150.5840 C   0  0  0  0  0  3  0  0  0  0  0  0
  146.8770  142.6560  149.8760 C   0  0  0  0  0  3  0  0  0  0  0  0
  148.0700  142.3750  150.5390 C   0  0  0  0  0  3  0  0  0  0  0  0
  148.0650  142.1220  151.9120 C   0  0  0  0  0  3  0  0  0  0  0  0
  1  2  1  0  0  0  0
  1  4  1  0  0  0  0
  2 17  1  0  0  0  0
  3  2  2  0  0  0  0
  5  6  2  0  0  0  0
  5  7  1  0  0  0  0
  7  1  1  0  0  0  0
  8  7  1  0  0  0  0
  9 14  1  0  0  0  0
  9 16  1  0  0  0  0
 10  9  2  0  0  0  0
 11 12  2  0  0  0  0
 11 10  1  0  0  0  0
 12 13  1  0  0  0  0
 13 14  2  0  0  0  0
 14  5  1  0  0  0  0
 16 15  1  0  0  0  0
 17 18  1  0  0  0  0
 19 18  1  0  0  0  0
 20 19  2  0  0  0  0
 21 22  1  0  0  0  0
 21 19  1  0  0  0  0
 23 21  1  0  0  0  0
 24 23  1  0  0  0  0
 25 24  1  0  0  0  0
 26 25  2  0  0  0  0
 27 28  2  0  0  0  0
 27 26  1  0  0  0  0
 28 29  1  0  0  0  0
 29 24  2  0  0  0  0
M  END
>  <MODEL>
8

>  <REMARK>
 VINA RESULT:    -7.105      5.176      8.630
 INTER + INTRA:         -11.622
 INTER:                 -10.428
 INTRA:                  -1.193
 UNBOUND:                -1.193
  Name = CHEMBL1898598
  9 active torsions:
  status: ('A' for Active; 'I' for Inactive)
    1  A    between atoms: C_1  and  O_2
    2  A    between atoms: O_2  and  C_3
    3  A    between atoms: C_8  and  C_9
    4  A    between atoms: N_11  and  N_12
    5  A    between atoms: C_13  and  C_15
    6  A    between atoms: C_15  and  C_16
    7  A    between atoms: C_16  and  C_17
    8  A    between atoms: N_19  and  C_20
    9  A    between atoms: C_20  and  C_21
                            x       y       z     vdW  Elec       q    Type
                         _______ _______ _______ _____ _____    ______ ____

>  <TORSDO>
F 8

>  <SCORE>
-7.105

>  <RMSD_LB>
5.176

>  <RMSD_UB>
8.630

$$$$
CHEMBL1898598
 OpenBabel10172500093D

 29 30  0  0  0  0  0  0  0  0999 V2000
  141.5510  138.3580  152.5750 N   0  0  0  0  0  0  0  0  0  0  0  0
  140.7730  138.4520  151.4410 C   0  0  0  0  0  0  0  0  0  0  0  0
  140.9010  139.3500  150.6110 O   0  0  0  0  0  0  0  0  0  0  0  0
  141.4130  137.6300  153.2240 H   0  0  0  0  0  0  0  0  0  0  0  0
  143.8510  139.0430  152.4730 C   0  0  0  0  0  0  0  0  0  0  0  0
  144.1970  137.9420  152.0430 O   0  0  0  0  0  0  0  0  0  0  0  0
  142.5380  139.3200  152.7800 N   0  0  0  0  0  0  0  0  0  0  0  0
  142.2940  140.2020  153.1450 H   0  0  0  0  0  0  0  0  0  0  0  0
  145.6860  140.2920  153.7800 C   0  0  0  0  0  0  0  0  0  0  0  0
  146.5370  141.4030  153.8710 C   0  0  0  0  0  3  0  0  0  0  0  0
  146.5660  142.3640  152.8570 C   0  0  0  0  0  3  0  0  0  0  0  0
  145.7560  142.2230  151.7370 C   0  0  0  0  0  3  0  0  0  0  0  0
  144.9010  141.1240  151.6360 C   0  0  0  0  0  3  0  0  0  0  0  0
  144.8490  140.1520  152.6530 C   0  0  0  0  0  0  0  0  0  0  0  0
  146.9100  138.9150  155.3040 C   0  0  0  0  0  1  0  0  0  0  0  0
  145.6670  139.2970  154.7240 O   0  0  0  0  0  0  0  0  0  0  0  0
  139.7270  137.3720  151.3140 C   0  0  0  0  0  2  0  0  0  0  0  0
  138.3190  137.9620  151.3650 C   0  0  0  0  0  2  0  0  0  0  0  0
  137.3350  136.9540  151.9210 C   0  0  0  0  0  0  0  0  0  0  0  0
  136.9790  136.9550  153.0950 O   0  0  0  0  0  0  0  0  0  0  0  0
  136.9000  136.0280  151.0030 N   0  0  0  0  0  0  0  0  0  0  0  0
  137.1900  136.1080  150.0650 H   0  0  0  0  0  0  0  0  0  0  0  0
  136.0250  134.9360  151.3790 C   0  0  0  0  0  2  0  0  0  0  0  0
  134.9750  134.6530  150.3380 C   0  0  0  0  0  0  0  0  0  0  0  0
  134.3380  133.3990  150.2810 C   0  0  0  0  0  3  0  0  0  0  0  0
  133.3100  133.1670  149.3690 C   0  0  0  0  0  3  0  0  0  0  0  0
  132.8970  134.1800  148.5050 C   0  0  0  0  0  3  0  0  0  0  0  0
  133.5200  135.4250  148.5490 C   0  0  0  0  0  3  0  0  0  0  0  0
  134.5500  135.6630  149.4590 C   0  0  0  0  0  3  0  0  0  0  0  0
  1  7  1  0  0  0  0
  1  4  1  0  0  0  0
  2  1  1  0  0  0  0
  3  2  2  0  0  0  0
  5 14  1  0  0  0  0
  5  7  1  0  0  0  0
  6  5  2  0  0  0  0
  7  8  1  0  0  0  0
  9 10  1  0  0  0  0
  9 16  1  0  0  0  0
 11 10  2  0  0  0  0
 12 11  1  0  0  0  0
 13 12  2  0  0  0  0
 13 14  1  0  0  0  0
 14  9  2  0  0  0  0
 16 15  1  0  0  0  0
 17 18  1  0  0  0  0
 17  2  1  0  0  0  0
 18 19  1  0  0  0  0
 19 20  2  0  0  0  0
 21 23  1  0  0  0  0
 21 19  1  0  0  0  0
 22 21  1  0  0  0  0
 24 23  1  0  0  0  0
 25 24  1  0  0  0  0
 26 25  2  0  0  0  0
 27 28  2  0  0  0  0
 27 26  1  0  0  0  0
 28 29  1  0  0  0  0
 29 24  2  0  0  0  0
M  END
>  <MODEL>
9

>  <REMARK>
 VINA RESULT:    -6.994      9.303     12.374
 INTER + INTRA:         -11.458
 INTER:                 -10.802
 INTRA:                  -0.656
 UNBOUND:                -1.193
  Name = CHEMBL1898598
  9 active torsions:
  status: ('A' for Active; 'I' for Inactive)
    1  A    between atoms: C_1  and  O_2
    2  A    between atoms: O_2  and  C_3
    3  A    between atoms: C_8  and  C_9
    4  A    between atoms: N_11  and  N_12
    5  A    between atoms: C_13  and  C_15
    6  A    between atoms: C_15  and  C_16
    7  A    between atoms: C_16  and  C_17
    8  A    between atoms: N_19  and  C_20
    9  A    between atoms: C_20  and  C_21
                            x       y       z     vdW  Elec       q    Type
                         _______ _______ _______ _____ _____    ______ ____

>  <TORSDO>
F 8

>  <SCORE>
-6.994

>  <RMSD_LB>
9.303

>  <RMSD_UB>
12.374

$$$$
