CHEMBL76546
 OpenBabel10172500223D

 24 24  0  0  0  0  0  0  0  0999 V2000
  146.2120  140.3150  154.6040 N   0  0  0  0  0  0  0  0  0  0  0  0
  145.7190  140.4670  155.4850 H   0  0  0  0  0  0  0  0  0  0  0  0
  147.5380  139.3090  154.8990 S   0  0  0  0  0  0  0  0  0  0  0  0
  147.2880  138.6150  156.1500 O   0  0  0  0  0  0  0  0  0  0  0  0
  148.7360  140.0850  154.6900 O   0  0  0  0  0  0  0  0  0  0  0  0
  147.4010  138.1100  153.5700 C   0  0  0  0  0  2  0  0  0  0  0  0
  146.4820  136.9730  154.0040 C   0  0  0  0  0  2  0  0  0  0  0  0
  145.0050  137.2940  153.8030 C   0  0  0  0  0  2  0  0  0  0  0  0
  144.6160  137.1150  152.3330 C   0  0  0  0  0  2  0  0  0  0  0  0
  143.1270  137.3770  152.1110 C   0  0  0  0  0  2  0  0  0  0  0  0
  142.4520  137.8450  153.4000 C   0  0  0  0  0  2  0  0  0  0  0  0
  140.5160  137.5830  151.8160 C   0  0  0  0  0  1  0  0  0  0  0  0
  140.9450  138.0030  153.2110 C   0  0  0  0  0  2  0  0  0  0  0  0
  146.5900  141.6300  154.0450 C   0  0  0  0  0  2  0  0  0  0  0  0
  146.4980  141.6710  152.5440 C   0  0  0  0  0  0  0  0  0  0  0  0
  147.5630  142.1590  151.7800 C   0  0  0  0  0  3  0  0  0  0  0  0
  147.4510  142.2420  150.3930 C   0  0  0  0  0  3  0  0  0  0  0  0
  146.2740  141.8390  149.7520 C   0  0  0  0  0  0  0  0  0  0  0  0
  145.1960  141.3500  150.4950 C   0  0  0  0  0  0  0  0  0  0  0  0
  145.3220  141.2720  151.8900 C   0  0  0  0  0  3  0  0  0  0  0  0
  146.2190  141.9410  148.3900 O   0  0  0  0  0  0  0  0  0  0  0  0
  145.7480  141.3040  147.8920 H   0  0  0  0  0  0  0  0  0  0  0  0
  143.9750  140.9210  150.0450 O   0  0  0  0  0  0  0  0  0  0  0  0
  143.9010  139.6360  149.4450 C   0  0  0  0  0  1  0  0  0  0  0  0
  1  3  1  0  0  0  0
  1  2  1  0  0  0  0
  3  4  2  0  0  0  0
  5  3  2  0  0  0  0
  6  7  1  0  0  0  0
  6  3  1  0  0  0  0
  8  7  1  0  0  0  0
  9  8  1  0  0  0  0
 10  9  1  0  0  0  0
 10 11  1  0  0  0  0
 12 13  1  0  0  0  0
 13 11  1  0  0  0  0
 14  1  1  0  0  0  0
 15 14  1  0  0  0  0
 16 15  2  0  0  0  0
 17 16  1  0  0  0  0
 18 17  2  0  0  0  0
 18 19  1  0  0  0  0
 19 20  2  0  0  0  0
 20 15  1  0  0  0  0
 21 18  1  0  0  0  0
 22 21  1  0  0  0  0
 23 19  1  0  0  0  0
 24 23  1  0  0  0  0
M  END
>  <MODEL>
1

>  <REMARK>
 VINA RESULT:    -6.464      0.000      0.000
 INTER + INTRA:         -11.392
 INTER:                 -10.334
 INTRA:                  -1.059
 UNBOUND:                -0.583
  Name = CHEMBL76546
  14 active torsions:
  status: ('A' for Active; 'I' for Inactive)
    1  A    between atoms: C_1  and  C_2
    2  A    between atoms: C_2  and  C_3
    3  A    between atoms: C_3  and  C_4
    4  A    between atoms: C_4  and  C_5
    5  A    between atoms: C_5  and  C_6
    6  A    between atoms: C_6  and  C_7
    7  A    between atoms: C_7  and  C_8
    8  A    between atoms: C_8  and  S_9
    9  A    between atoms: S_9  and  N_12
   10  A    between atoms: N_12  and  C_13
   11  A    between atoms: C_13  and  C_14
   12  A    between atoms: C_17  and  O_18
   13  A    between atoms: C_19  and  O_20
   14  A    between atoms: O_20  and  C_21
                            x       y       z     vdW  Elec       q    Type
                         _______ _______ _______ _____ _____    ______ ____

>  <TORSDO>
F 12

>  <SCORE>
-6.464

>  <RMSD_LB>
0.000

>  <RMSD_UB>
0.000

$$$$
CHEMBL76546
 OpenBabel10172500223D

 24 24  0  0  0  0  0  0  0  0999 V2000
  136.2130  135.3910  154.8760 N   0  0  0  0  0  0  0  0  0  0  0  0
  136.6740  135.2560  153.9750 H   0  0  0  0  0  0  0  0  0  0  0  0
  134.5410  135.3370  154.6360 S   0  0  0  0  0  0  0  0  0  0  0  0
  134.1340  136.6280  154.1110 O   0  0  0  0  0  0  0  0  0  0  0  0
  133.9420  134.7790  155.8230 O   0  0  0  0  0  0  0  0  0  0  0  0
  134.3930  134.1350  153.3100 C   0  0  0  0  0  2  0  0  0  0  0  0
  135.6950  134.0890  152.5170 C   0  0  0  0  0  2  0  0  0  0  0  0
  135.5930  134.7910  151.1670 C   0  0  0  0  0  2  0  0  0  0  0  0
  134.7250  133.9740  150.2060 C   0  0  0  0  0  2  0  0  0  0  0  0
  133.5200  134.7770  149.7180 C   0  0  0  0  0  2  0  0  0  0  0  0
  133.9540  135.9090  148.7860 C   0  0  0  0  0  2  0  0  0  0  0  0
  132.4980  137.1150  147.1270 C   0  0  0  0  0  1  0  0  0  0  0  0
  132.8350  136.9310  148.5960 C   0  0  0  0  0  2  0  0  0  0  0  0
  136.6780  136.6700  155.4530 C   0  0  0  0  0  2  0  0  0  0  0  0
  137.6330  137.4020  154.5490 C   0  0  0  0  0  0  0  0  0  0  0  0
  137.5810  137.2210  153.1640 C   0  0  0  0  0  3  0  0  0  0  0  0
  138.5020  137.8630  152.3370 C   0  0  0  0  0  3  0  0  0  0  0  0
  139.4870  138.6920  152.8850 C   0  0  0  0  0  0  0  0  0  0  0  0
  139.5600  138.8860  154.2670 C   0  0  0  0  0  0  0  0  0  0  0  0
  138.6270  138.2350  155.0870 C   0  0  0  0  0  3  0  0  0  0  0  0
  140.3640  139.2970  152.0290 O   0  0  0  0  0  0  0  0  0  0  0  0
  141.2160  139.5430  152.3280 H   0  0  0  0  0  0  0  0  0  0  0  0
  140.4510  139.6490  154.9760 O   0  0  0  0  0  0  0  0  0  0  0  0
  141.7450  139.1140  155.2110 C   0  0  0  0  0  1  0  0  0  0  0  0
  1 14  1  0  0  0  0
  2  1  1  0  0  0  0
  3  1  1  0  0  0  0
  3  5  2  0  0  0  0
  4  3  2  0  0  0  0
  6  3  1  0  0  0  0
  7  6  1  0  0  0  0
  8  7  1  0  0  0  0
  9  8  1  0  0  0  0
 10  9  1  0  0  0  0
 11 10  1  0  0  0  0
 12 13  1  0  0  0  0
 13 11  1  0  0  0  0
 15 20  1  0  0  0  0
 15 14  1  0  0  0  0
 16 15  2  0  0  0  0
 17 18  2  0  0  0  0
 17 16  1  0  0  0  0
 18 19  1  0  0  0  0
 19 23  1  0  0  0  0
 19 20  2  0  0  0  0
 21 22  1  0  0  0  0
 21 18  1  0  0  0  0
 23 24  1  0  0  0  0
M  END
>  <MODEL>
2

>  <REMARK>
 VINA RESULT:    -6.425      7.343     10.464
 INTER + INTRA:         -11.327
 INTER:                 -10.302
 INTRA:                  -1.025
 UNBOUND:                -0.583
  Name = CHEMBL76546
  14 active torsions:
  status: ('A' for Active; 'I' for Inactive)
    1  A    between atoms: C_1  and  C_2
    2  A    between atoms: C_2  and  C_3
    3  A    between atoms: C_3  and  C_4
    4  A    between atoms: C_4  and  C_5
    5  A    between atoms: C_5  and  C_6
    6  A    between atoms: C_6  and  C_7
    7  A    between atoms: C_7  and  C_8
    8  A    between atoms: C_8  and  S_9
    9  A    between atoms: S_9  and  N_12
   10  A    between atoms: N_12  and  C_13
   11  A    between atoms: C_13  and  C_14
   12  A    between atoms: C_17  and  O_18
   13  A    between atoms: C_19  and  O_20
   14  A    between atoms: O_20  and  C_21
                            x       y       z     vdW  Elec       q    Type
                         _______ _______ _______ _____ _____    ______ ____

>  <TORSDO>
F 12

>  <SCORE>
-6.425

>  <RMSD_LB>
7.343

>  <RMSD_UB>
10.464

$$$$
CHEMBL76546
 OpenBabel10172500223D

 24 24  0  0  0  0  0  0  0  0999 V2000
  137.4760  138.3970  154.7330 N   0  0  0  0  0  0  0  0  0  0  0  0
  137.0020  139.3000  154.7780 H   0  0  0  0  0  0  0  0  0  0  0  0
  137.2540  137.6020  156.2070 S   0  0  0  0  0  0  0  0  0  0  0  0
  136.6830  138.5600  157.1370 O   0  0  0  0  0  0  0  0  0  0  0  0
  138.4680  136.8850  156.5100 O   0  0  0  0  0  0  0  0  0  0  0  0
  135.9780  136.4070  155.7990 C   0  0  0  0  0  2  0  0  0  0  0  0
  136.4210  135.5800  154.5980 C   0  0  0  0  0  2  0  0  0  0  0  0
  135.3080  135.3760  153.5750 C   0  0  0  0  0  2  0  0  0  0  0  0
  135.7770  134.4420  152.4560 C   0  0  0  0  0  2  0  0  0  0  0  0
  134.9760  134.6580  151.1730 C   0  0  0  0  0  2  0  0  0  0  0  0
  134.2980  133.3630  150.7230 C   0  0  0  0  0  2  0  0  0  0  0  0
  133.8790  132.5190  148.3900 C   0  0  0  0  0  1  0  0  0  0  0  0
  133.5160  133.5690  149.4270 C   0  0  0  0  0  2  0  0  0  0  0  0
  138.8970  138.6300  154.4040 C   0  0  0  0  0  2  0  0  0  0  0  0
  139.2870  138.0530  153.0700 C   0  0  0  0  0  0  0  0  0  0  0  0
  140.6330  137.9400  152.7100 C   0  0  0  0  0  3  0  0  0  0  0  0
  140.9850  137.4510  151.4530 C   0  0  0  0  0  3  0  0  0  0  0  0
  139.9960  137.0700  150.5390 C   0  0  0  0  0  0  0  0  0  0  0  0
  138.6440  137.1760  150.8760 C   0  0  0  0  0  0  0  0  0  0  0  0
  138.3040  137.6690  152.1440 C   0  0  0  0  0  3  0  0  0  0  0  0
  140.3970  136.5970  149.3210 O   0  0  0  0  0  0  0  0  0  0  0  0
  140.1590  137.0540  148.5390 H   0  0  0  0  0  0  0  0  0  0  0  0
  137.5480  136.8610  150.1150 O   0  0  0  0  0  0  0  0  0  0  0  0
  137.0270  137.8630  149.2530 C   0  0  0  0  0  1  0  0  0  0  0  0
  1  2  1  0  0  0  0
  1  3  1  0  0  0  0
  3  5  2  0  0  0  0
  3  4  2  0  0  0  0
  6  3  1  0  0  0  0
  7  6  1  0  0  0  0
  8  7  1  0  0  0  0
  9  8  1  0  0  0  0
 10  9  1  0  0  0  0
 11 10  1  0  0  0  0
 12 13  1  0  0  0  0
 13 11  1  0  0  0  0
 14  1  1  0  0  0  0
 15 14  1  0  0  0  0
 16 15  1  0  0  0  0
 17 16  2  0  0  0  0
 18 19  2  0  0  0  0
 18 17  1  0  0  0  0
 19 20  1  0  0  0  0
 20 15  2  0  0  0  0
 21 18  1  0  0  0  0
 22 21  1  0  0  0  0
 23 19  1  0  0  0  0
 24 23  1  0  0  0  0
M  END
>  <MODEL>
3

>  <REMARK>
 VINA RESULT:    -6.290      6.640      9.071
 INTER + INTRA:         -11.101
 INTER:                 -10.012
 INTRA:                  -1.089
 UNBOUND:                -0.583
  Name = CHEMBL76546
  14 active torsions:
  status: ('A' for Active; 'I' for Inactive)
    1  A    between atoms: C_1  and  C_2
    2  A    between atoms: C_2  and  C_3
    3  A    between atoms: C_3  and  C_4
    4  A    between atoms: C_4  and  C_5
    5  A    between atoms: C_5  and  C_6
    6  A    between atoms: C_6  and  C_7
    7  A    between atoms: C_7  and  C_8
    8  A    between atoms: C_8  and  S_9
    9  A    between atoms: S_9  and  N_12
   10  A    between atoms: N_12  and  C_13
   11  A    between atoms: C_13  and  C_14
   12  A    between atoms: C_17  and  O_18
   13  A    between atoms: C_19  and  O_20
   14  A    between atoms: O_20  and  C_21
                            x       y       z     vdW  Elec       q    Type
                         _______ _______ _______ _____ _____    ______ ____

>  <TORSDO>
F 12

>  <SCORE>
-6.290

>  <RMSD_LB>
6.640

>  <RMSD_UB>
9.071

$$$$
CHEMBL76546
 OpenBabel10172500223D

 24 24  0  0  0  0  0  0  0  0999 V2000
  137.6290  138.2290  154.1920 N   0  0  0  0  0  0  0  0  0  0  0  0
  137.0890  139.0820  154.0370 H   0  0  0  0  0  0  0  0  0  0  0  0
  137.4110  137.7410  155.7960 S   0  0  0  0  0  0  0  0  0  0  0  0
  136.8680  138.8720  156.5260 O   0  0  0  0  0  0  0  0  0  0  0  0
  138.6160  137.0730  156.2220 O   0  0  0  0  0  0  0  0  0  0  0  0
  136.1100  136.5140  155.6390 C   0  0  0  0  0  2  0  0  0  0  0  0
  136.4690  135.5280  154.5330 C   0  0  0  0  0  2  0  0  0  0  0  0
  135.3710  135.3870  153.4840 C   0  0  0  0  0  2  0  0  0  0  0  0
  135.7810  134.3680  152.4180 C   0  0  0  0  0  2  0  0  0  0  0  0
  135.1410  134.6820  151.0660 C   0  0  0  0  0  2  0  0  0  0  0  0
  134.0010  133.7120  150.7580 C   0  0  0  0  0  2  0  0  0  0  0  0
  132.8270  135.9210  150.4890 C   0  0  0  0  0  1  0  0  0  0  0  0
  132.6530  134.4310  150.7300 C   0  0  0  0  0  2  0  0  0  0  0  0
  139.0400  138.5000  153.8520 C   0  0  0  0  0  2  0  0  0  0  0  0
  139.4310  137.9480  152.5070 C   0  0  0  0  0  0  0  0  0  0  0  0
  138.4550  137.6420  151.5540 C   0  0  0  0  0  3  0  0  0  0  0  0
  138.8200  137.0830  150.3300 C   0  0  0  0  0  3  0  0  0  0  0  0
  140.1650  136.8210  150.0440 C   0  0  0  0  0  0  0  0  0  0  0  0
  141.1570  137.1170  150.9830 C   0  0  0  0  0  0  0  0  0  0  0  0
  140.7760  137.6800  152.2100 C   0  0  0  0  0  3  0  0  0  0  0  0
  140.4670  136.2730  148.8300 O   0  0  0  0  0  0  0  0  0  0  0  0
  140.8700  135.4290  148.7830 H   0  0  0  0  0  0  0  0  0  0  0  0
  142.5110  136.9250  150.8820 O   0  0  0  0  0  0  0  0  0  0  0  0
  143.3480  137.5880  151.8180 C   0  0  0  0  0  1  0  0  0  0  0  0
  1  3  1  0  0  0  0
  2  1  1  0  0  0  0
  3  5  2  0  0  0  0
  3  4  2  0  0  0  0
  6  3  1  0  0  0  0
  7  6  1  0  0  0  0
  8  7  1  0  0  0  0
  9  8  1  0  0  0  0
 10  9  1  0  0  0  0
 11 10  1  0  0  0  0
 12 13  1  0  0  0  0
 13 11  1  0  0  0  0
 14  1  1  0  0  0  0
 15 14  1  0  0  0  0
 16 15  2  0  0  0  0
 17 16  1  0  0  0  0
 18 17  2  0  0  0  0
 18 19  1  0  0  0  0
 19 20  2  0  0  0  0
 20 15  1  0  0  0  0
 21 18  1  0  0  0  0
 22 21  1  0  0  0  0
 23 19  1  0  0  0  0
 23 24  1  0  0  0  0
M  END
>  <MODEL>
4

>  <REMARK>
 VINA RESULT:    -6.133      6.005      8.803
 INTER + INTRA:         -10.839
 INTER:                  -9.676
 INTRA:                  -1.163
 UNBOUND:                -0.583
  Name = CHEMBL76546
  14 active torsions:
  status: ('A' for Active; 'I' for Inactive)
    1  A    between atoms: C_1  and  C_2
    2  A    between atoms: C_2  and  C_3
    3  A    between atoms: C_3  and  C_4
    4  A    between atoms: C_4  and  C_5
    5  A    between atoms: C_5  and  C_6
    6  A    between atoms: C_6  and  C_7
    7  A    between atoms: C_7  and  C_8
    8  A    between atoms: C_8  and  S_9
    9  A    between atoms: S_9  and  N_12
   10  A    between atoms: N_12  and  C_13
   11  A    between atoms: C_13  and  C_14
   12  A    between atoms: C_17  and  O_18
   13  A    between atoms: C_19  and  O_20
   14  A    between atoms: O_20  and  C_21
                            x       y       z     vdW  Elec       q    Type
                         _______ _______ _______ _____ _____    ______ ____

>  <TORSDO>
F 12

>  <SCORE>
-6.133

>  <RMSD_LB>
6.005

>  <RMSD_UB>
8.803

$$$$
CHEMBL76546
 OpenBabel10172500223D

 24 24  0  0  0  0  0  0  0  0999 V2000
  144.2320  138.1780  151.0030 N   0  0  0  0  0  0  0  0  0  0  0  0
  144.1400  138.4660  150.0280 H   0  0  0  0  0  0  0  0  0  0  0  0
  145.8610  137.8510  151.3140 S   0  0  0  0  0  0  0  0  0  0  0  0
  146.6500  138.7610  150.5040 O   0  0  0  0  0  0  0  0  0  0  0  0
  146.0460  136.4230  151.2460 O   0  0  0  0  0  0  0  0  0  0  0  0
  146.0240  138.3620  153.0280 C   0  0  0  0  0  2  0  0  0  0  0  0
  147.3390  139.1110  153.2130 C   0  0  0  0  0  2  0  0  0  0  0  0
  147.2260  140.2760  154.1900 C   0  0  0  0  0  2  0  0  0  0  0  0
  145.9640  141.0940  153.9010 C   0  0  0  0  0  2  0  0  0  0  0  0
  146.2710  142.3070  153.0240 C   0  0  0  0  0  2  0  0  0  0  0  0
  145.5970  142.1830  151.6570 C   0  0  0  0  0  2  0  0  0  0  0  0
  148.0210  142.1880  150.9820 C   0  0  0  0  0  1  0  0  0  0  0  0
  146.5930  142.4280  150.5240 C   0  0  0  0  0  2  0  0  0  0  0  0
  143.3490  137.0150  151.2330 C   0  0  0  0  0  2  0  0  0  0  0  0
  142.0320  137.3990  151.8520 C   0  0  0  0  0  0  0  0  0  0  0  0
  140.8500  137.3230  151.1100 C   0  0  0  0  0  3  0  0  0  0  0  0
  139.6410  137.7280  151.6730 C   0  0  0  0  0  3  0  0  0  0  0  0
  139.5980  138.2150  152.9850 C   0  0  0  0  0  0  0  0  0  0  0  0
  140.7680  138.3010  153.7450 C   0  0  0  0  0  0  0  0  0  0  0  0
  141.9770  137.8890  153.1660 C   0  0  0  0  0  3  0  0  0  0  0  0
  138.3870  138.5970  153.4880 O   0  0  0  0  0  0  0  0  0  0  0  0
  138.3390  139.2800  154.1260 H   0  0  0  0  0  0  0  0  0  0  0  0
  140.9190  138.7530  155.0300 O   0  0  0  0  0  0  0  0  0  0  0  0
  140.6760  137.8390  156.0900 C   0  0  0  0  0  1  0  0  0  0  0  0
  1 14  1  0  0  0  0
  1  3  1  0  0  0  0
  2  1  1  0  0  0  0
  3  6  1  0  0  0  0
  4  3  2  0  0  0  0
  5  3  2  0  0  0  0
  6  7  1  0  0  0  0
  7  8  1  0  0  0  0
  9  8  1  0  0  0  0
 10  9  1  0  0  0  0
 11 10  1  0  0  0  0
 13 12  1  0  0  0  0
 13 11  1  0  0  0  0
 14 15  1  0  0  0  0
 15 20  1  0  0  0  0
 16 17  1  0  0  0  0
 16 15  2  0  0  0  0
 17 18  2  0  0  0  0
 18 21  1  0  0  0  0
 18 19  1  0  0  0  0
 19 23  1  0  0  0  0
 20 19  2  0  0  0  0
 21 22  1  0  0  0  0
 23 24  1  0  0  0  0
M  END
>  <MODEL>
5

>  <REMARK>
 VINA RESULT:    -6.101      2.929      6.422
 INTER + INTRA:         -10.785
 INTER:                  -9.599
 INTRA:                  -1.186
 UNBOUND:                -0.583
  Name = CHEMBL76546
  14 active torsions:
  status: ('A' for Active; 'I' for Inactive)
    1  A    between atoms: C_1  and  C_2
    2  A    between atoms: C_2  and  C_3
    3  A    between atoms: C_3  and  C_4
    4  A    between atoms: C_4  and  C_5
    5  A    between atoms: C_5  and  C_6
    6  A    between atoms: C_6  and  C_7
    7  A    between atoms: C_7  and  C_8
    8  A    between atoms: C_8  and  S_9
    9  A    between atoms: S_9  and  N_12
   10  A    between atoms: N_12  and  C_13
   11  A    between atoms: C_13  and  C_14
   12  A    between atoms: C_17  and  O_18
   13  A    between atoms: C_19  and  O_20
   14  A    between atoms: O_20  and  C_21
                            x       y       z     vdW  Elec       q    Type
                         _______ _______ _______ _____ _____    ______ ____

>  <TORSDO>
F 12

>  <SCORE>
-6.101

>  <RMSD_LB>
2.929

>  <RMSD_UB>
6.422

$$$$
CHEMBL76546
 OpenBabel10172500223D

 24 24  0  0  0  0  0  0  0  0999 V2000
  143.5680  139.9860  153.3510 N   0  0  0  0  0  0  0  0  0  0  0  0
  143.0750  140.8150  153.6840 H   0  0  0  0  0  0  0  0  0  0  0  0
  142.4260  138.8030  152.9600 S   0  0  0  0  0  0  0  0  0  0  0  0
  141.8480  139.1640  151.6770 O   0  0  0  0  0  0  0  0  0  0  0  0
  141.6030  138.5810  154.1230 O   0  0  0  0  0  0  0  0  0  0  0  0
  143.4570  137.3550  152.7090 C   0  0  0  0  0  2  0  0  0  0  0  0
  143.6030  137.0880  151.2150 C   0  0  0  0  0  2  0  0  0  0  0  0
  145.0480  136.8410  150.7950 C   0  0  0  0  0  2  0  0  0  0  0  0
  145.9320  138.0210  151.2100 C   0  0  0  0  0  2  0  0  0  0  0  0
  145.5300  139.3040  150.4870 C   0  0  0  0  0  2  0  0  0  0  0  0
  146.7410  140.2080  150.2530 C   0  0  0  0  0  2  0  0  0  0  0  0
  146.4690  142.7040  150.0850 C   0  0  0  0  0  1  0  0  0  0  0  0
  146.3890  141.3820  149.3410 C   0  0  0  0  0  2  0  0  0  0  0  0
  144.5180  139.5550  154.3980 C   0  0  0  0  0  2  0  0  0  0  0  0
  145.9020  140.1090  154.1910 C   0  0  0  0  0  0  0  0  0  0  0  0
  146.0840  141.4450  153.8200 C   0  0  0  0  0  3  0  0  0  0  0  0
  147.3660  141.9380  153.5800 C   0  0  0  0  0  3  0  0  0  0  0  0
  148.4820  141.1010  153.7070 C   0  0  0  0  0  0  0  0  0  0  0  0
  148.3230  139.7620  154.0750 C   0  0  0  0  0  0  0  0  0  0  0  0
  147.0280  139.2800  154.3130 C   0  0  0  0  0  3  0  0  0  0  0  0
  149.7150  141.6360  153.4610 O   0  0  0  0  0  0  0  0  0  0  0  0
  149.9330  141.9330  152.6000 H   0  0  0  0  0  0  0  0  0  0  0  0
  149.2880  138.8030  154.2390 O   0  0  0  0  0  0  0  0  0  0  0  0
  149.0280  137.5030  153.7300 C   0  0  0  0  0  1  0  0  0  0  0  0
  1  2  1  0  0  0  0
  1 14  1  0  0  0  0
  3  1  1  0  0  0  0
  3  5  2  0  0  0  0
  4  3  2  0  0  0  0
  6  3  1  0  0  0  0
  7  6  1  0  0  0  0
  8  9  1  0  0  0  0
  8  7  1  0  0  0  0
 10  9  1  0  0  0  0
 11 10  1  0  0  0  0
 13 12  1  0  0  0  0
 13 11  1  0  0  0  0
 15 20  1  0  0  0  0
 15 14  1  0  0  0  0
 16 15  2  0  0  0  0
 17 18  2  0  0  0  0
 17 16  1  0  0  0  0
 18 19  1  0  0  0  0
 19 23  1  0  0  0  0
 19 20  2  0  0  0  0
 21 18  1  0  0  0  0
 22 21  1  0  0  0  0
 24 23  1  0  0  0  0
M  END
>  <MODEL>
6

>  <REMARK>
 VINA RESULT:    -6.095      2.578      5.146
 INTER + INTRA:         -10.775
 INTER:                  -8.931
 INTRA:                  -1.844
 UNBOUND:                -0.583
  Name = CHEMBL76546
  14 active torsions:
  status: ('A' for Active; 'I' for Inactive)
    1  A    between atoms: C_1  and  C_2
    2  A    between atoms: C_2  and  C_3
    3  A    between atoms: C_3  and  C_4
    4  A    between atoms: C_4  and  C_5
    5  A    between atoms: C_5  and  C_6
    6  A    between atoms: C_6  and  C_7
    7  A    between atoms: C_7  and  C_8
    8  A    between atoms: C_8  and  S_9
    9  A    between atoms: S_9  and  N_12
   10  A    between atoms: N_12  and  C_13
   11  A    between atoms: C_13  and  C_14
   12  A    between atoms: C_17  and  O_18
   13  A    between atoms: C_19  and  O_20
   14  A    between atoms: O_20  and  C_21
                            x       y       z     vdW  Elec       q    Type
                         _______ _______ _______ _____ _____    ______ ____

>  <TORSDO>
F 12

>  <SCORE>
-6.095

>  <RMSD_LB>
2.578

>  <RMSD_UB>
5.146

$$$$
CHEMBL76546
 OpenBabel10172500223D

 24 24  0  0  0  0  0  0  0  0999 V2000
  145.6720  138.5010  153.2950 N   0  0  0  0  0  0  0  0  0  0  0  0
  145.5390  139.0440  152.4410 H   0  0  0  0  0  0  0  0  0  0  0  0
  147.3280  138.2530  153.5210 S   0  0  0  0  0  0  0  0  0  0  0  0
  147.9800  138.4770  152.2430 O   0  0  0  0  0  0  0  0  0  0  0  0
  147.4950  137.0190  154.2490 O   0  0  0  0  0  0  0  0  0  0  0  0
  147.7660  139.6140  154.6060 C   0  0  0  0  0  2  0  0  0  0  0  0
  147.9370  140.8860  153.7830 C   0  0  0  0  0  2  0  0  0  0  0  0
  146.8240  141.9010  154.0210 C   0  0  0  0  0  2  0  0  0  0  0  0
  146.2060  142.3370  152.6900 C   0  0  0  0  0  2  0  0  0  0  0  0
  147.0770  141.9230  151.5050 C   0  0  0  0  0  2  0  0  0  0  0  0
  146.2470  141.7970  150.2280 C   0  0  0  0  0  2  0  0  0  0  0  0
  144.1250  140.4540  150.3900 C   0  0  0  0  0  1  0  0  0  0  0  0
  145.6170  140.4090  150.1110 C   0  0  0  0  0  2  0  0  0  0  0  0
  144.9040  137.2440  153.1750 C   0  0  0  0  0  2  0  0  0  0  0  0
  143.4210  137.4760  153.0800 C   0  0  0  0  0  0  0  0  0  0  0  0
  142.7440  137.2640  151.8750 C   0  0  0  0  0  3  0  0  0  0  0  0
  141.3780  137.5290  151.7810 C   0  0  0  0  0  3  0  0  0  0  0  0
  140.6720  138.0110  152.8890 C   0  0  0  0  0  0  0  0  0  0  0  0
  141.3290  138.2320  154.1040 C   0  0  0  0  0  0  0  0  0  0  0  0
  142.7020  137.9600  154.1840 C   0  0  0  0  0  3  0  0  0  0  0  0
  139.3360  138.2540  152.7420 O   0  0  0  0  0  0  0  0  0  0  0  0
  138.7310  137.5400  152.7140 H   0  0  0  0  0  0  0  0  0  0  0  0
  140.8080  138.7020  155.2810 O   0  0  0  0  0  0  0  0  0  0  0  0
  140.3110  137.7530  156.2140 C   0  0  0  0  0  1  0  0  0  0  0  0
  1  3  1  0  0  0  0
  2  1  1  0  0  0  0
  3  5  2  0  0  0  0
  3  6  1  0  0  0  0
  4  3  2  0  0  0  0
  7  8  1  0  0  0  0
  7  6  1  0  0  0  0
  9  8  1  0  0  0  0
 10  9  1  0  0  0  0
 11 10  1  0  0  0  0
 13 11  1  0  0  0  0
 13 12  1  0  0  0  0
 14  1  1  0  0  0  0
 15 14  1  0  0  0  0
 15 20  1  0  0  0  0
 16 15  2  0  0  0  0
 17 16  1  0  0  0  0
 17 18  2  0  0  0  0
 18 19  1  0  0  0  0
 19 20  2  0  0  0  0
 19 23  1  0  0  0  0
 21 18  1  0  0  0  0
 22 21  1  0  0  0  0
 23 24  1  0  0  0  0
M  END
>  <MODEL>
7

>  <REMARK>
 VINA RESULT:    -6.087      2.391      5.671
 INTER + INTRA:         -10.762
 INTER:                  -9.433
 INTRA:                  -1.328
 UNBOUND:                -0.583
  Name = CHEMBL76546
  14 active torsions:
  status: ('A' for Active; 'I' for Inactive)
    1  A    between atoms: C_1  and  C_2
    2  A    between atoms: C_2  and  C_3
    3  A    between atoms: C_3  and  C_4
    4  A    between atoms: C_4  and  C_5
    5  A    between atoms: C_5  and  C_6
    6  A    between atoms: C_6  and  C_7
    7  A    between atoms: C_7  and  C_8
    8  A    between atoms: C_8  and  S_9
    9  A    between atoms: S_9  and  N_12
   10  A    between atoms: N_12  and  C_13
   11  A    between atoms: C_13  and  C_14
   12  A    between atoms: C_17  and  O_18
   13  A    between atoms: C_19  and  O_20
   14  A    between atoms: O_20  and  C_21
                            x       y       z     vdW  Elec       q    Type
                         _______ _______ _______ _____ _____    ______ ____

>  <TORSDO>
F 12

>  <SCORE>
-6.087

>  <RMSD_LB>
2.391

>  <RMSD_UB>
5.671

$$$$
CHEMBL76546
 OpenBabel10172500223D

 24 24  0  0  0  0  0  0  0  0999 V2000
  134.2700  136.1120  152.0130 N   0  0  0  0  0  0  0  0  0  0  0  0
  134.9800  135.6370  151.4550 H   0  0  0  0  0  0  0  0  0  0  0  0
  134.4220  135.6050  153.6190 S   0  0  0  0  0  0  0  0  0  0  0  0
  133.8420  134.2770  153.7120 O   0  0  0  0  0  0  0  0  0  0  0  0
  133.9800  136.6840  154.4670 O   0  0  0  0  0  0  0  0  0  0  0  0
  136.2010  135.4400  153.7920 C   0  0  0  0  0  2  0  0  0  0  0  0
  136.7100  136.4550  154.8100 C   0  0  0  0  0  2  0  0  0  0  0  0
  137.2690  135.8020  156.0690 C   0  0  0  0  0  2  0  0  0  0  0  0
  138.3320  136.7000  156.7080 C   0  0  0  0  0  2  0  0  0  0  0  0
  138.8260  137.7660  155.7310 C   0  0  0  0  0  2  0  0  0  0  0  0
  140.3510  137.8740  155.7580 C   0  0  0  0  0  2  0  0  0  0  0  0
  142.0090  137.9250  153.8660 C   0  0  0  0  0  1  0  0  0  0  0  0
  140.8720  138.6590  154.5550 C   0  0  0  0  0  2  0  0  0  0  0  0
  132.9440  135.8190  151.4320 C   0  0  0  0  0  2  0  0  0  0  0  0
  133.0340  135.1720  150.0760 C   0  0  0  0  0  0  0  0  0  0  0  0
  132.8770  133.7890  149.9370 C   0  0  0  0  0  3  0  0  0  0  0  0
  133.0120  133.1900  148.6850 C   0  0  0  0  0  3  0  0  0  0  0  0
  133.3070  133.9650  147.5580 C   0  0  0  0  0  0  0  0  0  0  0  0
  133.4700  135.3490  147.6730 C   0  0  0  0  0  0  0  0  0  0  0  0
  133.3310  135.9380  148.9380 C   0  0  0  0  0  3  0  0  0  0  0  0
  133.4280  133.3270  146.3550 O   0  0  0  0  0  0  0  0  0  0  0  0
  134.2540  133.3110  145.9140 H   0  0  0  0  0  0  0  0  0  0  0  0
  133.7650  136.2580  146.6910 O   0  0  0  0  0  0  0  0  0  0  0  0
  132.7840  137.2340  146.3720 C   0  0  0  0  0  1  0  0  0  0  0  0
  1  3  1  0  0  0  0
  2  1  1  0  0  0  0
  3  4  2  0  0  0  0
  3  6  1  0  0  0  0
  3  5  2  0  0  0  0
  6  7  1  0  0  0  0
  7  8  1  0  0  0  0
  8  9  1  0  0  0  0
 10 11  1  0  0  0  0
 10  9  1  0  0  0  0
 12 13  1  0  0  0  0
 13 11  1  0  0  0  0
 14  1  1  0  0  0  0
 15 14  1  0  0  0  0
 16 15  1  0  0  0  0
 17 16  2  0  0  0  0
 18 19  2  0  0  0  0
 18 17  1  0  0  0  0
 19 20  1  0  0  0  0
 20 15  2  0  0  0  0
 21 18  1  0  0  0  0
 22 21  1  0  0  0  0
 23 19  1  0  0  0  0
 24 23  1  0  0  0  0
M  END
>  <MODEL>
8

>  <REMARK>
 VINA RESULT:    -6.042      8.748     12.338
 INTER + INTRA:         -10.687
 INTER:                 -10.104
 INTRA:                  -0.583
 UNBOUND:                -0.583
  Name = CHEMBL76546
  14 active torsions:
  status: ('A' for Active; 'I' for Inactive)
    1  A    between atoms: C_1  and  C_2
    2  A    between atoms: C_2  and  C_3
    3  A    between atoms: C_3  and  C_4
    4  A    between atoms: C_4  and  C_5
    5  A    between atoms: C_5  and  C_6
    6  A    between atoms: C_6  and  C_7
    7  A    between atoms: C_7  and  C_8
    8  A    between atoms: C_8  and  S_9
    9  A    between atoms: S_9  and  N_12
   10  A    between atoms: N_12  and  C_13
   11  A    between atoms: C_13  and  C_14
   12  A    between atoms: C_17  and  O_18
   13  A    between atoms: C_19  and  O_20
   14  A    between atoms: O_20  and  C_21
                            x       y       z     vdW  Elec       q    Type
                         _______ _______ _______ _____ _____    ______ ____

>  <TORSDO>
F 12

>  <SCORE>
-6.042

>  <RMSD_LB>
8.748

>  <RMSD_UB>
12.338

$$$$
CHEMBL76546
 OpenBabel10172500223D

 24 24  0  0  0  0  0  0  0  0999 V2000
  134.3500  137.5780  147.2720 N   0  0  0  0  0  0  0  0  0  0  0  0
  134.4050  138.5310  147.6340 H   0  0  0  0  0  0  0  0  0  0  0  0
  134.6390  137.6200  145.6070 S   0  0  0  0  0  0  0  0  0  0  0  0
  136.0770  137.5850  145.4130 O   0  0  0  0  0  0  0  0  0  0  0  0
  133.8250  138.6680  145.0430 O   0  0  0  0  0  0  0  0  0  0  0  0
  133.9760  136.0390  145.0730 C   0  0  0  0  0  2  0  0  0  0  0  0
  135.1240  135.0820  144.7710 C   0  0  0  0  0  2  0  0  0  0  0  0
  135.3330  134.0420  145.8670 C   0  0  0  0  0  2  0  0  0  0  0  0
  136.3040  132.9570  145.3930 C   0  0  0  0  0  2  0  0  0  0  0  0
  135.8100  132.2810  144.1160 C   0  0  0  0  0  2  0  0  0  0  0  0
  136.9810  131.8010  143.2580 C   0  0  0  0  0  2  0  0  0  0  0  0
  138.0690  132.6490  141.1540 C   0  0  0  0  0  1  0  0  0  0  0  0
  137.6970  132.9740  142.5910 C   0  0  0  0  0  2  0  0  0  0  0  0
  133.0270  137.0220  147.6210 C   0  0  0  0  0  2  0  0  0  0  0  0
  133.1100  135.9290  148.6520 C   0  0  0  0  0  0  0  0  0  0  0  0
  132.7920  134.6090  148.3160 C   0  0  0  0  0  3  0  0  0  0  0  0
  132.8220  133.6110  149.2880 C   0  0  0  0  0  3  0  0  0  0  0  0
  133.1690  133.9180  150.6090 C   0  0  0  0  0  0  0  0  0  0  0  0
  133.4890  135.2310  150.9680 C   0  0  0  0  0  0  0  0  0  0  0  0
  133.4550  136.2250  149.9800 C   0  0  0  0  0  3  0  0  0  0  0  0
  133.1830  132.9020  151.5210 O   0  0  0  0  0  0  0  0  0  0  0  0
  133.7870  132.9220  152.2360 H   0  0  0  0  0  0  0  0  0  0  0  0
  133.8410  135.7160  152.2000 O   0  0  0  0  0  0  0  0  0  0  0  0
  135.2220  135.9240  152.4630 C   0  0  0  0  0  1  0  0  0  0  0  0
  1 14  1  0  0  0  0
  1  2  1  0  0  0  0
  3  1  1  0  0  0  0
  4  3  2  0  0  0  0
  5  3  2  0  0  0  0
  6  3  1  0  0  0  0
  7  6  1  0  0  0  0
  7  8  1  0  0  0  0
  9  8  1  0  0  0  0
 10  9  1  0  0  0  0
 11 10  1  0  0  0  0
 12 13  1  0  0  0  0
 13 11  1  0  0  0  0
 14 15  1  0  0  0  0
 15 20  1  0  0  0  0
 16 15  2  0  0  0  0
 16 17  1  0  0  0  0
 17 18  2  0  0  0  0
 18 19  1  0  0  0  0
 18 21  1  0  0  0  0
 19 23  1  0  0  0  0
 20 19  2  0  0  0  0
 21 22  1  0  0  0  0
 23 24  1  0  0  0  0
M  END
>  <MODEL>
9

>  <REMARK>
 VINA RESULT:    -5.988     11.747     14.339
 INTER + INTRA:         -10.596
 INTER:                  -9.483
 INTRA:                  -1.113
 UNBOUND:                -0.583
  Name = CHEMBL76546
  14 active torsions:
  status: ('A' for Active; 'I' for Inactive)
    1  A    between atoms: C_1  and  C_2
    2  A    between atoms: C_2  and  C_3
    3  A    between atoms: C_3  and  C_4
    4  A    between atoms: C_4  and  C_5
    5  A    between atoms: C_5  and  C_6
    6  A    between atoms: C_6  and  C_7
    7  A    between atoms: C_7  and  C_8
    8  A    between atoms: C_8  and  S_9
    9  A    between atoms: S_9  and  N_12
   10  A    between atoms: N_12  and  C_13
   11  A    between atoms: C_13  and  C_14
   12  A    between atoms: C_17  and  O_18
   13  A    between atoms: C_19  and  O_20
   14  A    between atoms: O_20  and  C_21
                            x       y       z     vdW  Elec       q    Type
                         _______ _______ _______ _____ _____    ______ ____

>  <TORSDO>
F 12

>  <SCORE>
-5.988

>  <RMSD_LB>
11.747

>  <RMSD_UB>
14.339

$$$$
