CHEMBL177193
 OpenBabel10162523433D

 35 36  0  0  1  0  0  0  0  0999 V2000
  140.3920  138.4490  154.9470 C   0  0  0  0  0  0  0  0  0  0  0  0
  139.7810  138.5670  153.6960 C   0  0  0  0  0  3  0  0  0  0  0  0
  138.4720  138.1240  153.5020 C   0  0  0  0  0  3  0  0  0  0  0  0
  137.7470  137.5410  154.5480 C   0  0  0  0  0  0  0  0  0  0  0  0
  138.3510  137.4090  155.8080 C   0  0  0  0  0  0  0  0  0  0  0  0
  139.6520  137.9030  156.0060 C   0  0  0  0  0  3  0  0  0  0  0  0
  137.7900  136.8510  156.9320 O   0  0  0  0  0  0  0  0  0  0  0  0
  137.2290  137.7540  157.8810 C   0  0  0  0  0  1  0  0  0  0  0  0
  141.8270  138.8690  155.1340 C   0  0  0  0  0  2  0  0  0  0  0  0
  143.9010  139.2460  153.8900 C   0  0  0  0  0  0  0  0  0  0  0  0
  144.4830  139.6630  154.8940 O   0  0  0  0  0  0  0  0  0  0  0  0
  142.5830  138.8540  153.9000 N   0  0  0  0  0  0  0  0  0  0  0  0
  142.1530  138.5620  153.0640 H   0  0  0  0  0  0  0  0  0  0  0  0
  144.5550  139.1550  152.5250 C   0  0  0  0  0  2  0  0  0  0  0  0
  143.9420  140.1590  151.5530 C   0  0  0  0  0  2  0  0  0  0  0  0
  144.9920  140.8170  150.6580 C   0  0  0  0  0  2  0  0  0  0  0  0
  145.3790  142.1830  151.2250 C   0  0  0  0  0  2  0  0  0  0  0  0
  146.7220  142.1320  151.9490 C   0  0  0  0  0  2  0  0  0  0  0  0
  146.5210  142.1890  153.4620 C   0  0  0  0  0  2  0  0  0  0  0  0
  148.9840  141.7370  153.6570 C   0  0  0  0  0  1  0  0  0  0  0  0
  147.6040  141.3970  154.1910 C   0  0  0  0  0  2  0  0  0  0  0  0
  136.4650  137.0980  154.4080 O   0  0  0  0  0  0  0  0  0  0  0  0
  136.2540  135.7410  154.0080 C   0  0  0  0  0  2  0  0  0  0  0  0
  134.8020  135.3830  154.3490 C   0  0  1  0  0  3  0  0  0  0  0  0
  133.9420  136.4890  154.0500 O   0  0  0  0  0  0  0  0  0  0  0  0
  134.4690  137.3010  153.9830 H   0  0  0  0  0  0  0  0  0  0  0  0
  134.3380  134.1460  153.5570 C   0  0  0  0  0  2  0  0  0  0  0  0
  133.2030  134.4840  152.7000 N   0  0  0  0  0  4  0  0  0  0  0  0
  132.8460  135.3990  152.9800 H   0  0  0  0  0  0  0  0  0  0  0  0
  132.5040  133.7510  152.8150 H   0  0  0  0  0  0  0  0  0  0  0  0
  133.5500  134.5350  151.2890 C   0  0  0  0  0  3  0  0  0  0  0  0
  132.4060  133.9700  150.4500 C   0  0  0  0  0  2  0  0  0  0  0  0
  133.0490  133.5780  149.1220 C   0  0  0  0  0  2  0  0  0  0  0  0
  134.5530  133.5030  149.3790 C   0  0  0  0  0  2  0  0  0  0  0  0
  134.7250  133.6470  150.8850 C   0  0  0  0  0  2  0  0  0  0  0  0
  1  9  1  0  0  0  0
  1  6  1  0  0  0  0
  2  1  2  0  0  0  0
  3  2  1  0  0  0  0
  3  4  2  0  0  0  0
  4  5  1  0  0  0  0
  5  6  2  0  0  0  0
  5  7  1  0  0  0  0
  7  8  1  0  0  0  0
 10 12  1  0  0  0  0
 10 11  2  0  0  0  0
 12  9  1  0  0  0  0
 13 12  1  0  0  0  0
 14 10  1  0  0  0  0
 15 14  1  0  0  0  0
 16 17  1  0  0  0  0
 16 15  1  0  0  0  0
 17 18  1  0  0  0  0
 18 19  1  0  0  0  0
 19 21  1  0  0  0  0
 20 21  1  0  0  0  0
 22  4  1  0  0  0  0
 23 24  1  0  0  0  0
 23 22  1  0  0  0  0
 24 27  1  6  0  0  0
 25 24  1  0  0  0  0
 26 25  1  0  0  0  0
 28 30  1  0  0  0  0
 28 29  1  0  0  0  0
 28 27  1  0  0  0  0
 31 28  1  0  0  0  0
 32 31  1  0  0  0  0
 33 34  1  0  0  0  0
 33 32  1  0  0  0  0
 34 35  1  0  0  0  0
 35 31  1  0  0  0  0
M  END
>  <MODEL>
1

>  <REMARK>
 VINA RESULT:    -6.892      0.000      0.000
 INTER + INTRA:         -16.093
 INTER:                 -14.731
 INTRA:                  -1.363
 UNBOUND:                -2.554
  Name = CHEMBL177193
  19 active torsions:
  status: ('A' for Active; 'I' for Inactive)
    1  A    between atoms: C_1  and  C_2
    2  A    between atoms: C_2  and  C_3
    3  A    between atoms: C_3  and  C_4
    4  A    between atoms: C_4  and  C_5
    5  A    between atoms: C_5  and  C_6
    6  A    between atoms: C_6  and  C_7
    7  A    between atoms: C_7  and  C_8
    8  A    between atoms: C_8  and  C_9
    9  A    between atoms: N_11  and  C_12
   10  A    between atoms: C_12  and  C_13
   11  A    between atoms: C_16  and  O_17
   12  A    between atoms: O_17  and  C_18
   13  A    between atoms: C_18  and  C_19
   14  A    between atoms: C_19  and  O_20
   15  A    between atoms: C_19  and  C_21
   16  A    between atoms: C_21  and  N_22
   17  A    between atoms: N_22  and  C_23
   18  A    between atoms: C_28  and  O_29
   19  A    between atoms: O_29  and  C_30
                            x       y       z     vdW  Elec       q    Type
                         _______ _______ _______ _____ _____    ______ ____

>  <TORSDO>
F 17

>  <SCORE>
-6.892

>  <RMSD_LB>
0.000

>  <RMSD_UB>
0.000

$$$$
CHEMBL177193
 OpenBabel10162523433D

 35 36  0  0  1  0  0  0  0  0999 V2000
  139.9080  137.7480  151.4650 C   0  0  0  0  0  0  0  0  0  0  0  0
  141.2610  137.4660  151.2600 C   0  0  0  0  0  3  0  0  0  0  0  0
  142.1870  137.6530  152.2880 C   0  0  0  0  0  3  0  0  0  0  0  0
  141.7870  138.1380  153.5380 C   0  0  0  0  0  0  0  0  0  0  0  0
  140.4320  138.4330  153.7550 C   0  0  0  0  0  0  0  0  0  0  0  0
  139.5000  138.1960  152.7300 C   0  0  0  0  0  3  0  0  0  0  0  0
  139.8740  138.9280  154.9100 O   0  0  0  0  0  0  0  0  0  0  0  0
  139.4120  137.9690  155.8570 C   0  0  0  0  0  1  0  0  0  0  0  0
  138.9240  137.6070  150.3320 C   0  0  0  0  0  2  0  0  0  0  0  0
  136.9520  136.1630  150.4610 C   0  0  0  0  0  0  0  0  0  0  0  0
  137.4740  135.3070  149.7430 O   0  0  0  0  0  0  0  0  0  0  0  0
  137.5750  137.3440  150.7890 N   0  0  0  0  0  0  0  0  0  0  0  0
  137.1030  138.0120  151.3360 H   0  0  0  0  0  0  0  0  0  0  0  0
  135.5530  136.0330  151.0300 C   0  0  0  0  0  2  0  0  0  0  0  0
  134.4980  136.3650  149.9780 C   0  0  0  0  0  2  0  0  0  0  0  0
  133.0750  136.2160  150.5150 C   0  0  0  0  0  2  0  0  0  0  0  0
  132.9320  134.8880  151.2580 C   0  0  0  0  0  2  0  0  0  0  0  0
  132.5860  133.7450  150.3070 C   0  0  0  0  0  2  0  0  0  0  0  0
  133.8260  132.9090  149.9930 C   0  0  0  0  0  2  0  0  0  0  0  0
  132.9980  133.5120  147.6990 C   0  0  0  0  0  1  0  0  0  0  0  0
  133.9260  132.6150  148.4990 C   0  0  0  0  0  2  0  0  0  0  0  0
  142.6530  138.3320  154.5730 O   0  0  0  0  0  0  0  0  0  0  0  0
  143.3680  139.5690  154.6390 C   0  0  0  0  0  2  0  0  0  0  0  0
  144.8570  139.2300  154.7850 C   0  0  1  0  0  3  0  0  0  0  0  0
  145.0570  137.8200  154.6240 O   0  0  0  0  0  0  0  0  0  0  0  0
  145.8240  137.6650  154.0510 H   0  0  0  0  0  0  0  0  0  0  0  0
  145.7000  139.9880  153.7410 C   0  0  0  0  0  2  0  0  0  0  0  0
  145.7200  141.4180  154.0410 N   0  0  0  0  0  4  0  0  0  0  0  0
  146.2550  141.5630  154.8980 H   0  0  0  0  0  0  0  0  0  0  0  0
  144.7520  141.7230  154.1420 H   0  0  0  0  0  0  0  0  0  0  0  0
  146.3180  142.2140  152.9810 C   0  0  0  0  0  3  0  0  0  0  0  0
  145.4480  142.1500  151.7270 C   0  0  0  0  0  2  0  0  0  0  0  0
  146.3800  142.5330  150.5820 C   0  0  0  0  0  2  0  0  0  0  0  0
  147.8030  142.3690  151.1130 C   0  0  0  0  0  2  0  0  0  0  0  0
  147.6630  141.7000  152.4740 C   0  0  0  0  0  2  0  0  0  0  0  0
  1  6  1  0  0  0  0
  2  1  2  0  0  0  0
  2  3  1  0  0  0  0
  3  4  2  0  0  0  0
  4  5  1  0  0  0  0
  4 22  1  0  0  0  0
  5  7  1  0  0  0  0
  6  5  2  0  0  0  0
  7  8  1  0  0  0  0
  9 12  1  0  0  0  0
  9  1  1  0  0  0  0
 10 12  1  0  0  0  0
 10 14  1  0  0  0  0
 11 10  2  0  0  0  0
 12 13  1  0  0  0  0
 15 16  1  0  0  0  0
 15 14  1  0  0  0  0
 16 17  1  0  0  0  0
 18 17  1  0  0  0  0
 19 18  1  0  0  0  0
 20 21  1  0  0  0  0
 21 19  1  0  0  0  0
 22 23  1  0  0  0  0
 23 24  1  0  0  0  0
 24 27  1  6  0  0  0
 25 24  1  0  0  0  0
 26 25  1  0  0  0  0
 27 28  1  0  0  0  0
 28 30  1  0  0  0  0
 28 29  1  0  0  0  0
 31 28  1  0  0  0  0
 32 31  1  0  0  0  0
 33 34  1  0  0  0  0
 33 32  1  0  0  0  0
 34 35  1  0  0  0  0
 35 31  1  0  0  0  0
M  END
>  <MODEL>
2

>  <REMARK>
 VINA RESULT:    -6.887      2.476     11.391
 INTER + INTRA:         -16.084
 INTER:                 -14.595
 INTRA:                  -1.489
 UNBOUND:                -2.554
  Name = CHEMBL177193
  19 active torsions:
  status: ('A' for Active; 'I' for Inactive)
    1  A    between atoms: C_1  and  C_2
    2  A    between atoms: C_2  and  C_3
    3  A    between atoms: C_3  and  C_4
    4  A    between atoms: C_4  and  C_5
    5  A    between atoms: C_5  and  C_6
    6  A    between atoms: C_6  and  C_7
    7  A    between atoms: C_7  and  C_8
    8  A    between atoms: C_8  and  C_9
    9  A    between atoms: N_11  and  C_12
   10  A    between atoms: C_12  and  C_13
   11  A    between atoms: C_16  and  O_17
   12  A    between atoms: O_17  and  C_18
   13  A    between atoms: C_18  and  C_19
   14  A    between atoms: C_19  and  O_20
   15  A    between atoms: C_19  and  C_21
   16  A    between atoms: C_21  and  N_22
   17  A    between atoms: N_22  and  C_23
   18  A    between atoms: C_28  and  O_29
   19  A    between atoms: O_29  and  C_30
                            x       y       z     vdW  Elec       q    Type
                         _______ _______ _______ _____ _____    ______ ____

>  <TORSDO>
F 17

>  <SCORE>
-6.887

>  <RMSD_LB>
2.476

>  <RMSD_UB>
11.391

$$$$
CHEMBL177193
 OpenBabel10162523433D

 35 36  0  0  1  0  0  0  0  0999 V2000
  138.7750  137.5870  151.7410 C   0  0  0  0  0  0  0  0  0  0  0  0
  138.6430  138.0020  153.0690 C   0  0  0  0  0  3  0  0  0  0  0  0
  139.7730  138.1980  153.8660 C   0  0  0  0  0  3  0  0  0  0  0  0
  141.0580  137.9720  153.3610 C   0  0  0  0  0  0  0  0  0  0  0  0
  141.2050  137.5460  152.0310 C   0  0  0  0  0  0  0  0  0  0  0  0
  140.0650  137.3990  151.2220 C   0  0  0  0  0  3  0  0  0  0  0  0
  142.3850  137.2650  151.3850 O   0  0  0  0  0  0  0  0  0  0  0  0
  142.2810  136.6610  150.0990 C   0  0  0  0  0  1  0  0  0  0  0  0
  137.5510  137.3140  150.9060 C   0  0  0  0  0  2  0  0  0  0  0  0
  136.3550  135.1930  151.1570 C   0  0  0  0  0  0  0  0  0  0  0  0
  136.9160  134.7070  150.1710 O   0  0  0  0  0  0  0  0  0  0  0  0
  136.5820  136.4800  151.5850 N   0  0  0  0  0  0  0  0  0  0  0  0
  136.0830  136.8350  152.3550 H   0  0  0  0  0  0  0  0  0  0  0  0
  135.3260  134.4470  151.9820 C   0  0  0  0  0  2  0  0  0  0  0  0
  134.5200  135.4050  152.8540 C   0  0  0  0  0  2  0  0  0  0  0  0
  134.6470  135.0830  154.3430 C   0  0  0  0  0  2  0  0  0  0  0  0
  135.4340  136.1860  155.0520 C   0  0  0  0  0  2  0  0  0  0  0  0
  136.9110  135.8260  155.1850 C   0  0  0  0  0  2  0  0  0  0  0  0
  137.3650  135.9410  156.6390 C   0  0  0  0  0  2  0  0  0  0  0  0
  136.6000  137.6070  158.3570 C   0  0  0  0  0  1  0  0  0  0  0  0
  137.4100  137.3990  157.0890 C   0  0  0  0  0  2  0  0  0  0  0  0
  142.1900  138.1540  154.0980 O   0  0  0  0  0  0  0  0  0  0  0  0
  142.1770  139.1430  155.1320 C   0  0  0  0  0  2  0  0  0  0  0  0
  143.5530  139.8200  155.1360 C   0  0  1  0  0  3  0  0  0  0  0  0
  144.1450  139.7190  156.4370 O   0  0  0  0  0  0  0  0  0  0  0  0
  143.7500  140.3800  157.0250 H   0  0  0  0  0  0  0  0  0  0  0  0
  144.4890  139.1740  154.0970 C   0  0  0  0  0  2  0  0  0  0  0  0
  144.1540  139.6360  152.7510 N   0  0  0  0  0  4  0  0  0  0  0  0
  143.3430  140.2520  152.8110 H   0  0  0  0  0  0  0  0  0  0  0  0
  143.9640  138.8100  152.1830 H   0  0  0  0  0  0  0  0  0  0  0  0
  145.2400  140.3610  152.1120 C   0  0  0  0  0  3  0  0  0  0  0  0
  145.9370  141.2610  153.1310 C   0  0  0  0  0  2  0  0  0  0  0  0
  146.6500  142.3210  152.2970 C   0  0  0  0  0  2  0  0  0  0  0  0
  146.0050  142.2840  150.9120 C   0  0  0  0  0  2  0  0  0  0  0  0
  144.8040  141.3560  151.0390 C   0  0  0  0  0  2  0  0  0  0  0  0
  1  2  1  0  0  0  0
  2  3  2  0  0  0  0
  4  3  1  0  0  0  0
  4 22  1  0  0  0  0
  5  4  2  0  0  0  0
  6  1  2  0  0  0  0
  6  5  1  0  0  0  0
  7  5  1  0  0  0  0
  8  7  1  0  0  0  0
  9 12  1  0  0  0  0
  9  1  1  0  0  0  0
 10 12  1  0  0  0  0
 10 14  1  0  0  0  0
 11 10  2  0  0  0  0
 12 13  1  0  0  0  0
 14 15  1  0  0  0  0
 15 16  1  0  0  0  0
 16 17  1  0  0  0  0
 17 18  1  0  0  0  0
 18 19  1  0  0  0  0
 19 21  1  0  0  0  0
 21 20  1  0  0  0  0
 22 23  1  0  0  0  0
 23 24  1  0  0  0  0
 24 27  1  6  0  0  0
 24 25  1  0  0  0  0
 25 26  1  0  0  0  0
 28 29  1  0  0  0  0
 28 27  1  0  0  0  0
 30 28  1  0  0  0  0
 31 28  1  0  0  0  0
 31 32  1  0  0  0  0
 33 32  1  0  0  0  0
 34 35  1  0  0  0  0
 34 33  1  0  0  0  0
 35 31  1  0  0  0  0
M  END
>  <MODEL>
3

>  <REMARK>
 VINA RESULT:    -6.646      2.398     10.226
 INTER + INTRA:         -15.610
 INTER:                 -13.388
 INTRA:                  -2.222
 UNBOUND:                -2.554
  Name = CHEMBL177193
  19 active torsions:
  status: ('A' for Active; 'I' for Inactive)
    1  A    between atoms: C_1  and  C_2
    2  A    between atoms: C_2  and  C_3
    3  A    between atoms: C_3  and  C_4
    4  A    between atoms: C_4  and  C_5
    5  A    between atoms: C_5  and  C_6
    6  A    between atoms: C_6  and  C_7
    7  A    between atoms: C_7  and  C_8
    8  A    between atoms: C_8  and  C_9
    9  A    between atoms: N_11  and  C_12
   10  A    between atoms: C_12  and  C_13
   11  A    between atoms: C_16  and  O_17
   12  A    between atoms: O_17  and  C_18
   13  A    between atoms: C_18  and  C_19
   14  A    between atoms: C_19  and  O_20
   15  A    between atoms: C_19  and  C_21
   16  A    between atoms: C_21  and  N_22
   17  A    between atoms: N_22  and  C_23
   18  A    between atoms: C_28  and  O_29
   19  A    between atoms: O_29  and  C_30
                            x       y       z     vdW  Elec       q    Type
                         _______ _______ _______ _____ _____    ______ ____

>  <TORSDO>
F 17

>  <SCORE>
-6.646

>  <RMSD_LB>
2.398

>  <RMSD_UB>
10.226

$$$$
CHEMBL177193
 OpenBabel10162523433D

 35 36  0  0  1  0  0  0  0  0999 V2000
  137.1690  136.5410  155.4600 C   0  0  0  0  0  0  0  0  0  0  0  0
  137.9740  136.7870  156.5750 C   0  0  0  0  0  3  0  0  0  0  0  0
  139.0600  137.6590  156.4870 C   0  0  0  0  0  3  0  0  0  0  0  0
  139.3750  138.2950  155.2810 C   0  0  0  0  0  0  0  0  0  0  0  0
  138.5800  138.0510  154.1500 C   0  0  0  0  0  0  0  0  0  0  0  0
  137.4600  137.2100  154.2620 C   0  0  0  0  0  3  0  0  0  0  0  0
  138.7570  138.5780  152.8930 O   0  0  0  0  0  0  0  0  0  0  0  0
  138.6220  137.6760  151.7980 C   0  0  0  0  0  1  0  0  0  0  0  0
  136.0380  135.5480  155.5440 C   0  0  0  0  0  2  0  0  0  0  0  0
  134.1260  135.1760  154.0640 C   0  0  0  0  0  0  0  0  0  0  0  0
  133.3200  135.3780  154.9750 O   0  0  0  0  0  0  0  0  0  0  0  0
  135.4870  135.2120  154.2490 N   0  0  0  0  0  0  0  0  0  0  0  0
  136.0890  135.0080  153.4970 H   0  0  0  0  0  0  0  0  0  0  0  0
  133.7100  134.8260  152.6480 C   0  0  0  0  0  2  0  0  0  0  0  0
  134.6340  133.7690  152.0490 C   0  0  0  0  0  2  0  0  0  0  0  0
  134.8480  133.9660  150.5490 C   0  0  0  0  0  2  0  0  0  0  0  0
  133.9960  132.9680  149.7640 C   0  0  0  0  0  2  0  0  0  0  0  0
  132.8950  133.6670  148.9720 C   0  0  0  0  0  2  0  0  0  0  0  0
  133.1700  135.1660  148.8730 C   0  0  0  0  0  2  0  0  0  0  0  0
  132.3770  136.9190  147.2580 C   0  0  0  0  0  1  0  0  0  0  0  0
  133.1660  135.6310  147.4190 C   0  0  0  0  0  2  0  0  0  0  0  0
  140.4220  139.1590  155.1470 O   0  0  0  0  0  0  0  0  0  0  0  0
  141.7350  138.6160  154.9810 C   0  0  0  0  0  2  0  0  0  0  0  0
  142.7370  139.7120  155.3640 C   0  0  1  0  0  3  0  0  0  0  0  0
  142.9650  139.6940  156.7790 O   0  0  0  0  0  0  0  0  0  0  0  0
  142.5740  140.4860  157.1800 H   0  0  0  0  0  0  0  0  0  0  0  0
  144.0770  139.5180  154.6290 C   0  0  0  0  0  2  0  0  0  0  0  0
  145.1570  139.2880  155.5870 N   0  0  0  0  0  4  0  0  0  0  0  0
  144.8110  138.6730  156.3240 H   0  0  0  0  0  0  0  0  0  0  0  0
  145.4410  140.1970  155.9510 H   0  0  0  0  0  0  0  0  0  0  0  0
  146.3290  138.6750  154.9850 C   0  0  0  0  0  3  0  0  0  0  0  0
  146.8650  139.5640  153.8640 C   0  0  0  0  0  2  0  0  0  0  0  0
  147.7000  138.6330  152.9900 C   0  0  0  0  0  2  0  0  0  0  0  0
  147.2740  137.2100  153.3460 C   0  0  0  0  0  2  0  0  0  0  0  0
  146.0650  137.3570  154.2610 C   0  0  0  0  0  2  0  0  0  0  0  0
  1  9  1  0  0  0  0
  1  2  1  0  0  0  0
  3  2  2  0  0  0  0
  4  3  1  0  0  0  0
  5  6  1  0  0  0  0
  5  4  2  0  0  0  0
  6  1  2  0  0  0  0
  7  5  1  0  0  0  0
  8  7  1  0  0  0  0
 10 12  1  0  0  0  0
 10 11  2  0  0  0  0
 12  9  1  0  0  0  0
 13 12  1  0  0  0  0
 14 10  1  0  0  0  0
 15 14  1  0  0  0  0
 16 15  1  0  0  0  0
 17 16  1  0  0  0  0
 18 17  1  0  0  0  0
 19 18  1  0  0  0  0
 20 21  1  0  0  0  0
 21 19  1  0  0  0  0
 22  4  1  0  0  0  0
 23 22  1  0  0  0  0
 23 24  1  0  0  0  0
 24 27  1  6  0  0  0
 24 25  1  0  0  0  0
 25 26  1  0  0  0  0
 27 28  1  0  0  0  0
 28 30  1  0  0  0  0
 28 29  1  0  0  0  0
 31 28  1  0  0  0  0
 32 31  1  0  0  0  0
 33 34  1  0  0  0  0
 33 32  1  0  0  0  0
 34 35  1  0  0  0  0
 35 31  1  0  0  0  0
M  END
>  <MODEL>
4

>  <REMARK>
 VINA RESULT:    -6.619      2.181     11.133
 INTER + INTRA:         -15.558
 INTER:                 -14.286
 INTRA:                  -1.272
 UNBOUND:                -2.554
  Name = CHEMBL177193
  19 active torsions:
  status: ('A' for Active; 'I' for Inactive)
    1  A    between atoms: C_1  and  C_2
    2  A    between atoms: C_2  and  C_3
    3  A    between atoms: C_3  and  C_4
    4  A    between atoms: C_4  and  C_5
    5  A    between atoms: C_5  and  C_6
    6  A    between atoms: C_6  and  C_7
    7  A    between atoms: C_7  and  C_8
    8  A    between atoms: C_8  and  C_9
    9  A    between atoms: N_11  and  C_12
   10  A    between atoms: C_12  and  C_13
   11  A    between atoms: C_16  and  O_17
   12  A    between atoms: O_17  and  C_18
   13  A    between atoms: C_18  and  C_19
   14  A    between atoms: C_19  and  O_20
   15  A    between atoms: C_19  and  C_21
   16  A    between atoms: C_21  and  N_22
   17  A    between atoms: N_22  and  C_23
   18  A    between atoms: C_28  and  O_29
   19  A    between atoms: O_29  and  C_30
                            x       y       z     vdW  Elec       q    Type
                         _______ _______ _______ _____ _____    ______ ____

>  <TORSDO>
F 17

>  <SCORE>
-6.619

>  <RMSD_LB>
2.181

>  <RMSD_UB>
11.133

$$$$
CHEMBL177193
 OpenBabel10162523433D

 35 36  0  0  1  0  0  0  0  0999 V2000
  144.7750  139.6040  150.8190 C   0  0  0  0  0  0  0  0  0  0  0  0
  145.9350  138.8260  150.8080 C   0  0  0  0  0  3  0  0  0  0  0  0
  146.2960  138.0740  151.9270 C   0  0  0  0  0  3  0  0  0  0  0  0
  145.5130  138.0900  153.0870 C   0  0  0  0  0  0  0  0  0  0  0  0
  144.3480  138.8730  153.1150 C   0  0  0  0  0  0  0  0  0  0  0  0
  143.9680  139.5880  151.9670 C   0  0  0  0  0  3  0  0  0  0  0  0
  143.4790  139.0140  154.1710 O   0  0  0  0  0  0  0  0  0  0  0  0
  143.8920  139.8770  155.2270 C   0  0  0  0  0  1  0  0  0  0  0  0
  144.4260  140.4650  149.6320 C   0  0  0  0  0  2  0  0  0  0  0  0
  143.5820  139.1000  147.7850 C   0  0  0  0  0  0  0  0  0  0  0  0
  144.7230  138.8090  147.4160 O   0  0  0  0  0  0  0  0  0  0  0  0
  143.3310  139.9300  148.8510 N   0  0  0  0  0  0  0  0  0  0  0  0
  142.4030  140.1610  149.0850 H   0  0  0  0  0  0  0  0  0  0  0  0
  142.3300  138.6100  147.0830 C   0  0  0  0  0  2  0  0  0  0  0  0
  142.5460  137.2290  146.4730 C   0  0  0  0  0  2  0  0  0  0  0  0
  141.5470  136.1980  146.9990 C   0  0  0  0  0  2  0  0  0  0  0  0
  141.9740  135.7150  148.3850 C   0  0  0  0  0  2  0  0  0  0  0  0
  141.0950  136.3080  149.4840 C   0  0  0  0  0  2  0  0  0  0  0  0
  141.9490  137.0190  150.5320 C   0  0  0  0  0  2  0  0  0  0  0  0
  139.6920  137.6670  151.4270 C   0  0  0  0  0  1  0  0  0  0  0  0
  141.1320  137.3380  151.7820 C   0  0  0  0  0  2  0  0  0  0  0  0
  145.8200  137.3680  154.2020 O   0  0  0  0  0  0  0  0  0  0  0  0
  147.1670  137.4010  154.6840 C   0  0  0  0  0  2  0  0  0  0  0  0
  147.3200  138.6720  155.5300 C   0  0  1  0  0  3  0  0  0  0  0  0
  147.9620  138.3590  156.7730 O   0  0  0  0  0  0  0  0  0  0  0  0
  148.0330  139.1620  157.3110 H   0  0  0  0  0  0  0  0  0  0  0  0
  148.1460  139.7360  154.7820 C   0  0  0  0  0  2  0  0  0  0  0  0
  147.4310  141.0110  154.7540 N   0  0  0  0  0  4  0  0  0  0  0  0
  147.7020  141.5540  155.5750 H   0  0  0  0  0  0  0  0  0  0  0  0
  146.4330  140.8010  154.7490 H   0  0  0  0  0  0  0  0  0  0  0  0
  147.7160  141.7970  153.5650 C   0  0  0  0  0  3  0  0  0  0  0  0
  146.4120  142.1770  152.8660 C   0  0  0  0  0  2  0  0  0  0  0  0
  146.8160  142.5000  151.4310 C   0  0  0  0  0  2  0  0  0  0  0  0
  148.2000  141.8860  151.2240 C   0  0  0  0  0  2  0  0  0  0  0  0
  148.4720  141.0500  152.4680 C   0  0  0  0  0  2  0  0  0  0  0  0
  1  6  1  0  0  0  0
  2  1  2  0  0  0  0
  2  3  1  0  0  0  0
  3  4  2  0  0  0  0
  4  5  1  0  0  0  0
  4 22  1  0  0  0  0
  5  7  1  0  0  0  0
  6  5  2  0  0  0  0
  7  8  1  0  0  0  0
  9  1  1  0  0  0  0
 10 12  1  0  0  0  0
 11 10  2  0  0  0  0
 12 13  1  0  0  0  0
 12  9  1  0  0  0  0
 14 10  1  0  0  0  0
 15 16  1  0  0  0  0
 15 14  1  0  0  0  0
 16 17  1  0  0  0  0
 17 18  1  0  0  0  0
 18 19  1  0  0  0  0
 19 21  1  0  0  0  0
 20 21  1  0  0  0  0
 22 23  1  0  0  0  0
 24 23  1  6  0  0  0
 24 25  1  0  0  0  0
 25 26  1  0  0  0  0
 27 24  1  0  0  0  0
 28 27  1  0  0  0  0
 28 29  1  0  0  0  0
 30 28  1  0  0  0  0
 31 28  1  0  0  0  0
 32 31  1  0  0  0  0
 33 32  1  0  0  0  0
 34 33  1  0  0  0  0
 34 35  1  0  0  0  0
 35 31  1  0  0  0  0
M  END
>  <MODEL>
5

>  <REMARK>
 VINA RESULT:    -6.559      5.350     10.475
 INTER + INTRA:         -15.439
 INTER:                 -12.393
 INTRA:                  -3.045
 UNBOUND:                -2.554
  Name = CHEMBL177193
  19 active torsions:
  status: ('A' for Active; 'I' for Inactive)
    1  A    between atoms: C_1  and  C_2
    2  A    between atoms: C_2  and  C_3
    3  A    between atoms: C_3  and  C_4
    4  A    between atoms: C_4  and  C_5
    5  A    between atoms: C_5  and  C_6
    6  A    between atoms: C_6  and  C_7
    7  A    between atoms: C_7  and  C_8
    8  A    between atoms: C_8  and  C_9
    9  A    between atoms: N_11  and  C_12
   10  A    between atoms: C_12  and  C_13
   11  A    between atoms: C_16  and  O_17
   12  A    between atoms: O_17  and  C_18
   13  A    between atoms: C_18  and  C_19
   14  A    between atoms: C_19  and  O_20
   15  A    between atoms: C_19  and  C_21
   16  A    between atoms: C_21  and  N_22
   17  A    between atoms: N_22  and  C_23
   18  A    between atoms: C_28  and  O_29
   19  A    between atoms: O_29  and  C_30
                            x       y       z     vdW  Elec       q    Type
                         _______ _______ _______ _____ _____    ______ ____

>  <TORSDO>
F 17

>  <SCORE>
-6.559

>  <RMSD_LB>
5.350

>  <RMSD_UB>
10.475

$$$$
CHEMBL177193
 OpenBabel10162523433D

 35 36  0  0  1  0  0  0  0  0999 V2000
  143.1240  137.7400  152.5540 C   0  0  0  0  0  0  0  0  0  0  0  0
  141.9690  137.4490  151.8240 C   0  0  0  0  0  3  0  0  0  0  0  0
  140.7080  137.7610  152.3370 C   0  0  0  0  0  3  0  0  0  0  0  0
  140.5710  138.3590  153.5940 C   0  0  0  0  0  0  0  0  0  0  0  0
  141.7230  138.6510  154.3420 C   0  0  0  0  0  0  0  0  0  0  0  0
  142.9890  138.3770  153.7970 C   0  0  0  0  0  3  0  0  0  0  0  0
  141.7670  139.2200  155.5930 O   0  0  0  0  0  0  0  0  0  0  0  0
  142.9150  140.0090  155.8950 C   0  0  0  0  0  1  0  0  0  0  0  0
  144.4780  137.3410  152.0250 C   0  0  0  0  0  2  0  0  0  0  0  0
  145.4530  139.1450  150.6900 C   0  0  0  0  0  0  0  0  0  0  0  0
  144.8080  138.8180  149.6900 O   0  0  0  0  0  0  0  0  0  0  0  0
  145.3790  138.4650  151.8820 N   0  0  0  0  0  0  0  0  0  0  0  0
  145.9410  138.7430  152.6400 H   0  0  0  0  0  0  0  0  0  0  0  0
  146.4280  140.3050  150.7080 C   0  0  0  0  0  2  0  0  0  0  0  0
  145.6930  141.6400  150.7880 C   0  0  0  0  0  2  0  0  0  0  0  0
  145.8810  142.3270  152.1400 C   0  0  0  0  0  2  0  0  0  0  0  0
  147.2570  141.9880  152.7130 C   0  0  0  0  0  2  0  0  0  0  0  0
  147.1500  141.3170  154.0790 C   0  0  0  0  0  2  0  0  0  0  0  0
  148.3810  140.4570  154.3560 C   0  0  0  0  0  2  0  0  0  0  0  0
  146.5290  138.9820  155.1960 C   0  0  0  0  0  1  0  0  0  0  0  0
  147.9830  139.0400  154.7610 C   0  0  0  0  0  2  0  0  0  0  0  0
  139.3630  138.6880  154.1340 O   0  0  0  0  0  0  0  0  0  0  0  0
  138.3180  137.7110  154.1090 C   0  0  0  0  0  2  0  0  0  0  0  0
  137.4570  137.9280  155.3590 C   0  0  1  0  0  3  0  0  0  0  0  0
  136.9120  139.2540  155.3540 O   0  0  0  0  0  0  0  0  0  0  0  0
  137.3970  139.8060  155.9860 H   0  0  0  0  0  0  0  0  0  0  0  0
  136.3070  136.9040  155.4220 C   0  0  0  0  0  2  0  0  0  0  0  0
  136.5500  135.8060  154.4880 N   0  0  0  0  0  4  0  0  0  0  0  0
  136.6360  134.9390  155.0210 H   0  0  0  0  0  0  0  0  0  0  0  0
  137.4040  136.0240  153.9760 H   0  0  0  0  0  0  0  0  0  0  0  0
  135.4860  135.6450  153.5110 C   0  0  0  0  0  3  0  0  0  0  0  0
  134.9790  134.2040  153.5250 C   0  0  0  0  0  2  0  0  0  0  0  0
  134.2990  134.0140  152.1720 C   0  0  0  0  0  2  0  0  0  0  0  0
  134.8050  135.1410  151.2740 C   0  0  0  0  0  2  0  0  0  0  0  0
  135.9160  135.8280  152.0570 C   0  0  0  0  0  2  0  0  0  0  0  0
  1  6  1  0  0  0  0
  2  3  1  0  0  0  0
  2  1  2  0  0  0  0
  3  4  2  0  0  0  0
  4 22  1  0  0  0  0
  4  5  1  0  0  0  0
  5  7  1  0  0  0  0
  6  5  2  0  0  0  0
  7  8  1  0  0  0  0
  9  1  1  0  0  0  0
 10 14  1  0  0  0  0
 10 12  1  0  0  0  0
 11 10  2  0  0  0  0
 12  9  1  0  0  0  0
 12 13  1  0  0  0  0
 14 15  1  0  0  0  0
 15 16  1  0  0  0  0
 16 17  1  0  0  0  0
 17 18  1  0  0  0  0
 18 19  1  0  0  0  0
 19 21  1  0  0  0  0
 21 20  1  0  0  0  0
 23 22  1  0  0  0  0
 24 23  1  6  0  0  0
 24 27  1  0  0  0  0
 25 24  1  0  0  0  0
 25 26  1  0  0  0  0
 28 29  1  0  0  0  0
 28 27  1  0  0  0  0
 30 28  1  0  0  0  0
 31 32  1  0  0  0  0
 31 28  1  0  0  0  0
 33 32  1  0  0  0  0
 34 35  1  0  0  0  0
 34 33  1  0  0  0  0
 35 31  1  0  0  0  0
M  END
>  <MODEL>
6

>  <REMARK>
 VINA RESULT:    -6.513      2.157      3.594
 INTER + INTRA:         -15.349
 INTER:                 -13.691
 INTRA:                  -1.658
 UNBOUND:                -2.554
  Name = CHEMBL177193
  19 active torsions:
  status: ('A' for Active; 'I' for Inactive)
    1  A    between atoms: C_1  and  C_2
    2  A    between atoms: C_2  and  C_3
    3  A    between atoms: C_3  and  C_4
    4  A    between atoms: C_4  and  C_5
    5  A    between atoms: C_5  and  C_6
    6  A    between atoms: C_6  and  C_7
    7  A    between atoms: C_7  and  C_8
    8  A    between atoms: C_8  and  C_9
    9  A    between atoms: N_11  and  C_12
   10  A    between atoms: C_12  and  C_13
   11  A    between atoms: C_16  and  O_17
   12  A    between atoms: O_17  and  C_18
   13  A    between atoms: C_18  and  C_19
   14  A    between atoms: C_19  and  O_20
   15  A    between atoms: C_19  and  C_21
   16  A    between atoms: C_21  and  N_22
   17  A    between atoms: N_22  and  C_23
   18  A    between atoms: C_28  and  O_29
   19  A    between atoms: O_29  and  C_30
                            x       y       z     vdW  Elec       q    Type
                         _______ _______ _______ _____ _____    ______ ____

>  <TORSDO>
F 17

>  <SCORE>
-6.513

>  <RMSD_LB>
2.157

>  <RMSD_UB>
3.594

$$$$
CHEMBL177193
 OpenBabel10162523433D

 35 36  0  0  1  0  0  0  0  0999 V2000
  139.9010  137.9480  151.9910 C   0  0  0  0  0  0  0  0  0  0  0  0
  139.9200  138.1810  153.3680 C   0  0  0  0  0  3  0  0  0  0  0  0
  141.1310  138.2330  154.0610 C   0  0  0  0  0  3  0  0  0  0  0  0
  142.3480  138.0420  153.3980 C   0  0  0  0  0  0  0  0  0  0  0  0
  142.3430  137.7990  152.0150 C   0  0  0  0  0  0  0  0  0  0  0  0
  141.1230  137.7970  151.3190 C   0  0  0  0  0  3  0  0  0  0  0  0
  143.4400  137.5760  151.2170 O   0  0  0  0  0  0  0  0  0  0  0  0
  143.3560  136.4820  150.3070 C   0  0  0  0  0  1  0  0  0  0  0  0
  138.5880  137.8280  151.2600 C   0  0  0  0  0  2  0  0  0  0  0  0
  136.8010  136.2050  151.6620 C   0  0  0  0  0  0  0  0  0  0  0  0
  136.9710  135.6730  150.5620 O   0  0  0  0  0  0  0  0  0  0  0  0
  137.5300  137.2900  152.0880 N   0  0  0  0  0  0  0  0  0  0  0  0
  137.3320  137.7010  152.9600 H   0  0  0  0  0  0  0  0  0  0  0  0
  135.7450  135.7530  152.6510 C   0  0  0  0  0  2  0  0  0  0  0  0
  134.6480  134.9510  151.9560 C   0  0  0  0  0  2  0  0  0  0  0  0
  133.6490  135.8470  151.2230 C   0  0  0  0  0  2  0  0  0  0  0  0
  132.4110  135.0390  150.8330 C   0  0  0  0  0  2  0  0  0  0  0  0
  132.7830  133.6570  150.3020 C   0  0  0  0  0  2  0  0  0  0  0  0
  132.6550  133.6110  148.7810 C   0  0  0  0  0  2  0  0  0  0  0  0
  135.1460  133.6050  148.4520 C   0  0  0  0  0  1  0  0  0  0  0  0
  133.8420  132.8870  148.1510 C   0  0  0  0  0  2  0  0  0  0  0  0
  143.5550  138.0890  154.0300 O   0  0  0  0  0  0  0  0  0  0  0  0
  143.9290  139.3000  154.6940 C   0  0  0  0  0  2  0  0  0  0  0  0
  145.4470  139.4580  154.5380 C   0  0  1  0  0  3  0  0  0  0  0  0
  146.1030  139.1250  155.7670 O   0  0  0  0  0  0  0  0  0  0  0  0
  146.9130  139.6510  155.8550 H   0  0  0  0  0  0  0  0  0  0  0  0
  145.9830  138.5550  153.4110 C   0  0  0  0  0  2  0  0  0  0  0  0
  145.7190  139.1570  152.1050 N   0  0  0  0  0  4  0  0  0  0  0  0
  144.7160  139.1060  151.9210 H   0  0  0  0  0  0  0  0  0  0  0  0
  146.2590  138.6360  151.4140 H   0  0  0  0  0  0  0  0  0  0  0  0
  146.1350  140.5470  152.0250 C   0  0  0  0  0  3  0  0  0  0  0  0
  145.0490  141.3770  151.3420 C   0  0  0  0  0  2  0  0  0  0  0  0
  145.7670  142.6270  150.8410 C   0  0  0  0  0  2  0  0  0  0  0  0
  147.2580  142.2940  150.8390 C   0  0  0  0  0  2  0  0  0  0  0  0
  147.3510  140.8030  151.1380 C   0  0  0  0  0  2  0  0  0  0  0  0
  1  2  1  0  0  0  0
  2  3  2  0  0  0  0
  4 22  1  0  0  0  0
  4  3  1  0  0  0  0
  5  4  2  0  0  0  0
  6  1  2  0  0  0  0
  6  5  1  0  0  0  0
  7  5  1  0  0  0  0
  8  7  1  0  0  0  0
  9  1  1  0  0  0  0
  9 12  1  0  0  0  0
 10 12  1  0  0  0  0
 10 14  1  0  0  0  0
 11 10  2  0  0  0  0
 12 13  1  0  0  0  0
 15 14  1  0  0  0  0
 16 15  1  0  0  0  0
 17 16  1  0  0  0  0
 18 17  1  0  0  0  0
 19 18  1  0  0  0  0
 21 20  1  0  0  0  0
 21 19  1  0  0  0  0
 22 23  1  0  0  0  0
 24 27  1  6  0  0  0
 24 23  1  0  0  0  0
 24 25  1  0  0  0  0
 25 26  1  0  0  0  0
 28 27  1  0  0  0  0
 29 28  1  0  0  0  0
 30 28  1  0  0  0  0
 31 28  1  0  0  0  0
 32 31  1  0  0  0  0
 33 32  1  0  0  0  0
 34 33  1  0  0  0  0
 34 35  1  0  0  0  0
 35 31  1  0  0  0  0
M  END
>  <MODEL>
7

>  <REMARK>
 VINA RESULT:    -6.456      2.713     11.414
 INTER + INTRA:         -15.237
 INTER:                 -13.232
 INTRA:                  -2.005
 UNBOUND:                -2.554
  Name = CHEMBL177193
  19 active torsions:
  status: ('A' for Active; 'I' for Inactive)
    1  A    between atoms: C_1  and  C_2
    2  A    between atoms: C_2  and  C_3
    3  A    between atoms: C_3  and  C_4
    4  A    between atoms: C_4  and  C_5
    5  A    between atoms: C_5  and  C_6
    6  A    between atoms: C_6  and  C_7
    7  A    between atoms: C_7  and  C_8
    8  A    between atoms: C_8  and  C_9
    9  A    between atoms: N_11  and  C_12
   10  A    between atoms: C_12  and  C_13
   11  A    between atoms: C_16  and  O_17
   12  A    between atoms: O_17  and  C_18
   13  A    between atoms: C_18  and  C_19
   14  A    between atoms: C_19  and  O_20
   15  A    between atoms: C_19  and  C_21
   16  A    between atoms: C_21  and  N_22
   17  A    between atoms: N_22  and  C_23
   18  A    between atoms: C_28  and  O_29
   19  A    between atoms: O_29  and  C_30
                            x       y       z     vdW  Elec       q    Type
                         _______ _______ _______ _____ _____    ______ ____

>  <TORSDO>
F 17

>  <SCORE>
-6.456

>  <RMSD_LB>
2.713

>  <RMSD_UB>
11.414

$$$$
CHEMBL177193
 OpenBabel10162523433D

 35 36  0  0  1  0  0  0  0  0999 V2000
  140.2520  138.3830  153.7170 C   0  0  0  0  0  0  0  0  0  0  0  0
  140.7520  138.8360  154.9400 C   0  0  0  0  0  3  0  0  0  0  0  0
  142.0680  139.2910  155.0430 C   0  0  0  0  0  3  0  0  0  0  0  0
  142.9180  139.2920  153.9310 C   0  0  0  0  0  0  0  0  0  0  0  0
  142.4310  138.8320  152.6980 C   0  0  0  0  0  0  0  0  0  0  0  0
  141.0920  138.4220  152.5930 C   0  0  0  0  0  3  0  0  0  0  0  0
  143.1320  138.7520  151.5170 O   0  0  0  0  0  0  0  0  0  0  0  0
  142.9770  139.8380  150.6080 C   0  0  0  0  0  1  0  0  0  0  0  0
  138.8520  137.8310  153.6260 C   0  0  0  0  0  2  0  0  0  0  0  0
  137.2180  136.9880  152.0120 C   0  0  0  0  0  0  0  0  0  0  0  0
  136.4440  136.6380  152.9070 O   0  0  0  0  0  0  0  0  0  0  0  0
  138.4410  137.5630  152.2650 N   0  0  0  0  0  0  0  0  0  0  0  0
  139.0380  137.7920  151.5170 H   0  0  0  0  0  0  0  0  0  0  0  0
  136.9290  136.7900  150.5370 C   0  0  0  0  0  2  0  0  0  0  0  0
  136.9120  135.3080  150.1750 C   0  0  0  0  0  2  0  0  0  0  0  0
  136.7810  135.0790  148.6690 C   0  0  0  0  0  2  0  0  0  0  0  0
  135.5950  135.8730  148.1200 C   0  0  0  0  0  2  0  0  0  0  0  0
  134.4000  134.9700  147.8270 C   0  0  0  0  0  2  0  0  0  0  0  0
  133.4610  134.9100  149.0290 C   0  0  0  0  0  2  0  0  0  0  0  0
  134.0830  132.4770  148.9660 C   0  0  0  0  0  1  0  0  0  0  0  0
  132.9900  133.4820  149.2890 C   0  0  0  0  0  2  0  0  0  0  0  0
  144.2080  139.7320  153.9820 O   0  0  0  0  0  0  0  0  0  0  0  0
  145.1550  138.9770  154.7440 C   0  0  0  0  0  2  0  0  0  0  0  0
  146.4340  138.8670  153.9060 C   0  0  1  0  0  3  0  0  0  0  0  0
  146.1010  138.7220  152.5190 O   0  0  0  0  0  0  0  0  0  0  0  0
  145.8020  137.8150  152.3510 H   0  0  0  0  0  0  0  0  0  0  0  0
  147.3250  140.1110  154.0900 C   0  0  0  0  0  2  0  0  0  0  0  0
  146.5130  141.3260  154.0730 N   0  0  0  0  0  4  0  0  0  0  0  0
  146.7060  141.8580  154.9220 H   0  0  0  0  0  0  0  0  0  0  0  0
  145.5360  141.0400  154.0160 H   0  0  0  0  0  0  0  0  0  0  0  0
  146.7850  142.1750  152.9240 C   0  0  0  0  0  3  0  0  0  0  0  0
  145.5880  142.1650  151.9740 C   0  0  0  0  0  2  0  0  0  0  0  0
  146.1530  142.6070  150.6270 C   0  0  0  0  0  2  0  0  0  0  0  0
  147.6670  142.4280  150.7160 C   0  0  0  0  0  2  0  0  0  0  0  0
  147.9220  141.6940  152.0260 C   0  0  0  0  0  2  0  0  0  0  0  0
  1  2  1  0  0  0  0
  2  3  2  0  0  0  0
  4 22  1  0  0  0  0
  4  3  1  0  0  0  0
  5  4  2  0  0  0  0
  6  5  1  0  0  0  0
  6  1  2  0  0  0  0
  7  5  1  0  0  0  0
  8  7  1  0  0  0  0
  9  1  1  0  0  0  0
 10 12  1  0  0  0  0
 10 11  2  0  0  0  0
 12  9  1  0  0  0  0
 13 12  1  0  0  0  0
 14 10  1  0  0  0  0
 15 14  1  0  0  0  0
 16 15  1  0  0  0  0
 17 16  1  0  0  0  0
 18 17  1  0  0  0  0
 18 19  1  0  0  0  0
 19 21  1  0  0  0  0
 20 21  1  0  0  0  0
 22 23  1  0  0  0  0
 24 27  1  6  0  0  0
 24 23  1  0  0  0  0
 25 24  1  0  0  0  0
 26 25  1  0  0  0  0
 28 27  1  0  0  0  0
 28 29  1  0  0  0  0
 30 28  1  0  0  0  0
 31 28  1  0  0  0  0
 32 31  1  0  0  0  0
 33 34  1  0  0  0  0
 33 32  1  0  0  0  0
 34 35  1  0  0  0  0
 35 31  1  0  0  0  0
M  END
>  <MODEL>
8

>  <REMARK>
 VINA RESULT:    -6.439      2.489     11.379
 INTER + INTRA:         -15.203
 INTER:                 -13.145
 INTRA:                  -2.058
 UNBOUND:                -2.554
  Name = CHEMBL177193
  19 active torsions:
  status: ('A' for Active; 'I' for Inactive)
    1  A    between atoms: C_1  and  C_2
    2  A    between atoms: C_2  and  C_3
    3  A    between atoms: C_3  and  C_4
    4  A    between atoms: C_4  and  C_5
    5  A    between atoms: C_5  and  C_6
    6  A    between atoms: C_6  and  C_7
    7  A    between atoms: C_7  and  C_8
    8  A    between atoms: C_8  and  C_9
    9  A    between atoms: N_11  and  C_12
   10  A    between atoms: C_12  and  C_13
   11  A    between atoms: C_16  and  O_17
   12  A    between atoms: O_17  and  C_18
   13  A    between atoms: C_18  and  C_19
   14  A    between atoms: C_19  and  O_20
   15  A    between atoms: C_19  and  C_21
   16  A    between atoms: C_21  and  N_22
   17  A    between atoms: N_22  and  C_23
   18  A    between atoms: C_28  and  O_29
   19  A    between atoms: O_29  and  C_30
                            x       y       z     vdW  Elec       q    Type
                         _______ _______ _______ _____ _____    ______ ____

>  <TORSDO>
F 17

>  <SCORE>
-6.439

>  <RMSD_LB>
2.489

>  <RMSD_UB>
11.379

$$$$
CHEMBL177193
 OpenBabel10162523433D

 35 36  0  0  1  0  0  0  0  0999 V2000
  135.3290  134.8520  150.3630 C   0  0  0  0  0  0  0  0  0  0  0  0
  136.3010  135.7360  149.8870 C   0  0  0  0  0  3  0  0  0  0  0  0
  137.0020  136.5610  150.7690 C   0  0  0  0  0  3  0  0  0  0  0  0
  136.7420  136.5300  152.1430 C   0  0  0  0  0  0  0  0  0  0  0  0
  135.7630  135.6520  152.6350 C   0  0  0  0  0  0  0  0  0  0  0  0
  135.0960  134.7920  151.7450 C   0  0  0  0  0  3  0  0  0  0  0  0
  135.3740  135.5060  153.9450 O   0  0  0  0  0  0  0  0  0  0  0  0
  134.0000  135.7540  154.2350 C   0  0  0  0  0  1  0  0  0  0  0  0
  134.5300  134.0130  149.4000 C   0  0  0  0  0  2  0  0  0  0  0  0
  134.3920  133.4380  147.0250 C   0  0  0  0  0  0  0  0  0  0  0  0
  133.2890  132.9050  147.1690 O   0  0  0  0  0  0  0  0  0  0  0  0
  135.0960  133.9910  148.0680 N   0  0  0  0  0  0  0  0  0  0  0  0
  135.9890  134.3730  147.9080 H   0  0  0  0  0  0  0  0  0  0  0  0
  135.1140  133.5100  145.6940 C   0  0  0  0  0  2  0  0  0  0  0  0
  136.2540  134.5240  145.7410 C   0  0  0  0  0  2  0  0  0  0  0  0
  135.8320  135.8980  145.2200 C   0  0  0  0  0  2  0  0  0  0  0  0
  136.1100  136.9660  146.2780 C   0  0  0  0  0  2  0  0  0  0  0  0
  134.8190  137.4960  146.8960 C   0  0  0  0  0  2  0  0  0  0  0  0
  133.6020  136.9740  146.1350 C   0  0  0  0  0  2  0  0  0  0  0  0
  132.8010  137.0170  148.5150 C   0  0  0  0  0  1  0  0  0  0  0  0
  132.4060  136.7960  147.0660 C   0  0  0  0  0  2  0  0  0  0  0  0
  137.4040  137.3110  153.0440 O   0  0  0  0  0  0  0  0  0  0  0  0
  138.5960  137.9770  152.6200 C   0  0  0  0  0  2  0  0  0  0  0  0
  139.0630  138.8650  153.7800 C   0  0  1  0  0  3  0  0  0  0  0  0
  138.8120  140.2420  153.4750 O   0  0  0  0  0  0  0  0  0  0  0  0
  139.3990  140.5270  152.7570 H   0  0  0  0  0  0  0  0  0  0  0  0
  138.3380  138.4910  155.0870 C   0  0  0  0  0  2  0  0  0  0  0  0
  139.2040  137.6750  155.9370 N   0  0  0  0  0  4  0  0  0  0  0  0
  139.9030  138.2820  156.3660 H   0  0  0  0  0  0  0  0  0  0  0  0
  139.6300  136.9630  155.3440 H   0  0  0  0  0  0  0  0  0  0  0  0
  138.4800  136.9860  156.9920 C   0  0  0  0  0  3  0  0  0  0  0  0
  137.5980  135.8930  156.3910 C   0  0  0  0  0  2  0  0  0  0  0  0
  136.5330  135.6210  157.4500 C   0  0  0  0  0  2  0  0  0  0  0  0
  136.5490  136.8210  158.3940 C   0  0  0  0  0  2  0  0  0  0  0  0
  137.4690  137.8470  157.7450 C   0  0  0  0  0  2  0  0  0  0  0  0
  1  6  1  0  0  0  0
  2  1  2  0  0  0  0
  2  3  1  0  0  0  0
  3  4  2  0  0  0  0
  4  5  1  0  0  0  0
  4 22  1  0  0  0  0
  5  7  1  0  0  0  0
  6  5  2  0  0  0  0
  7  8  1  0  0  0  0
  9  1  1  0  0  0  0
 10 11  2  0  0  0  0
 10 12  1  0  0  0  0
 12  9  1  0  0  0  0
 13 12  1  0  0  0  0
 14 15  1  0  0  0  0
 14 10  1  0  0  0  0
 16 15  1  0  0  0  0
 16 17  1  0  0  0  0
 17 18  1  0  0  0  0
 19 18  1  0  0  0  0
 19 21  1  0  0  0  0
 21 20  1  0  0  0  0
 23 22  1  0  0  0  0
 24 23  1  6  0  0  0
 24 27  1  0  0  0  0
 25 24  1  0  0  0  0
 26 25  1  0  0  0  0
 27 28  1  0  0  0  0
 28 29  1  0  0  0  0
 28 31  1  0  0  0  0
 30 28  1  0  0  0  0
 31 35  1  0  0  0  0
 32 31  1  0  0  0  0
 32 33  1  0  0  0  0
 33 34  1  0  0  0  0
 35 34  1  0  0  0  0
M  END
>  <MODEL>
9

>  <REMARK>
 VINA RESULT:    -6.406      4.597      9.887
 INTER + INTRA:         -15.139
 INTER:                 -12.585
 INTRA:                  -2.554
 UNBOUND:                -2.554
  Name = CHEMBL177193
  19 active torsions:
  status: ('A' for Active; 'I' for Inactive)
    1  A    between atoms: C_1  and  C_2
    2  A    between atoms: C_2  and  C_3
    3  A    between atoms: C_3  and  C_4
    4  A    between atoms: C_4  and  C_5
    5  A    between atoms: C_5  and  C_6
    6  A    between atoms: C_6  and  C_7
    7  A    between atoms: C_7  and  C_8
    8  A    between atoms: C_8  and  C_9
    9  A    between atoms: N_11  and  C_12
   10  A    between atoms: C_12  and  C_13
   11  A    between atoms: C_16  and  O_17
   12  A    between atoms: O_17  and  C_18
   13  A    between atoms: C_18  and  C_19
   14  A    between atoms: C_19  and  O_20
   15  A    between atoms: C_19  and  C_21
   16  A    between atoms: C_21  and  N_22
   17  A    between atoms: N_22  and  C_23
   18  A    between atoms: C_28  and  O_29
   19  A    between atoms: O_29  and  C_30
                            x       y       z     vdW  Elec       q    Type
                         _______ _______ _______ _____ _____    ______ ____

>  <TORSDO>
F 17

>  <SCORE>
-6.406

>  <RMSD_LB>
4.597

>  <RMSD_UB>
9.887

$$$$
