CHEMBL311678
 OpenBabel10172500553D

 22 22  0  0  1  0  0  0  0  0999 V2000
  145.4860  140.7790  154.2400 N   0  0  0  0  0  0  0  0  0  0  0  0
  145.4650  139.5430  154.5850 C   0  0  2  0  0  3  0  0  0  0  0  0
  144.3150  138.8790  154.8910 N   0  0  0  0  0  0  0  0  0  0  0  0
  144.6310  141.2650  154.1940 H   0  0  0  0  0  0  0  0  0  0  0  0
  144.3240  137.8970  154.8380 H   0  0  0  0  0  0  0  0  0  0  0  0
  146.8670  138.5030  154.7400 S   0  0  0  0  0  0  0  0  0  0  0  0
  147.9950  139.2290  154.5220 H   0  0  0  0  0  0  0  0  0  0  0  0
  146.7050  141.4980  153.9120 C   0  0  0  0  0  2  0  0  0  0  0  0
  146.4700  142.3230  152.6450 C   0  0  0  0  0  2  0  0  0  0  0  0
  148.9070  141.9160  152.1190 C   0  0  0  0  0  1  0  0  0  0  0  0
  147.5000  142.0140  151.5570 C   0  0  0  0  0  2  0  0  0  0  0  0
  143.0830  139.5180  155.2860 C   0  0  0  0  0  2  0  0  0  0  0  0
  141.9320  139.0200  154.4360 C   0  0  0  0  0  0  0  0  0  0  0  0
  142.1700  138.2640  153.2820 C   0  0  0  0  0  3  0  0  0  0  0  0
  141.1060  137.7630  152.5270 C   0  0  0  0  0  3  0  0  0  0  0  0
  139.7850  138.0060  152.9180 C   0  0  0  0  0  0  0  0  0  0  0  0
  139.5180  138.7610  154.0640 C   0  0  0  0  0  0  0  0  0  0  0  0
  140.6000  139.2600  154.8110 C   0  0  0  0  0  3  0  0  0  0  0  0
  138.7800  137.4820  152.1530 O   0  0  0  0  0  0  0  0  0  0  0  0
  138.9670  137.1550  151.2960 H   0  0  0  0  0  0  0  0  0  0  0  0
  138.3020  139.0990  154.5960 O   0  0  0  0  0  0  0  0  0  0  0  0
  137.6900  138.1940  155.5050 C   0  0  0  0  0  1  0  0  0  0  0  0
  1  2  1  0  0  0  0
  2  6  1  1  0  0  0
  2  3  1  0  0  0  0
  3 12  1  0  0  0  0
  4  1  1  0  0  0  0
  5  3  1  0  0  0  0
  7  6  1  0  0  0  0
  8  1  1  0  0  0  0
  9  8  1  0  0  0  0
 11 10  1  0  0  0  0
 11  9  1  0  0  0  0
 13 18  1  0  0  0  0
 13 12  1  0  0  0  0
 14 13  2  0  0  0  0
 15 16  2  0  0  0  0
 15 14  1  0  0  0  0
 16 17  1  0  0  0  0
 17 21  1  0  0  0  0
 17 18  2  0  0  0  0
 19 16  1  0  0  0  0
 20 19  1  0  0  0  0
 21 22  1  0  0  0  0
M  END
>  <MODEL>
1

>  <REMARK>
 VINA RESULT:    -6.032      0.000      0.000
 INTER + INTRA:          -8.934
 INTER:                  -8.547
 INTRA:                  -0.388
 UNBOUND:                -0.434
  Name = CHEMBL311678
  10 active torsions:
  status: ('A' for Active; 'I' for Inactive)
    1  A    between atoms: C_1  and  C_2
    2  A    between atoms: C_2  and  C_3
    3  A    between atoms: C_3  and  C_4
    4  A    between atoms: C_4  and  N_5
    5  A    between atoms: C_6  and  S_7
    6  A    between atoms: N_8  and  C_9
    7  A    between atoms: C_9  and  C_10
    8  A    between atoms: C_13  and  O_14
    9  A    between atoms: C_15  and  O_16
   10  A    between atoms: O_16  and  C_17
                            x       y       z     vdW  Elec       q    Type
                         _______ _______ _______ _____ _____    ______ ____

>  <TORSDO>
F 8

>  <SCORE>
-6.032

>  <RMSD_LB>
0.000

>  <RMSD_UB>
0.000

$$$$
CHEMBL311678
 OpenBabel10172500553D

 22 22  0  0  1  0  0  0  0  0999 V2000
  145.5410  140.8270  154.1030 N   0  0  0  0  0  0  0  0  0  0  0  0
  145.5890  139.6210  154.5410 C   0  0  2  0  0  3  0  0  0  0  0  0
  144.5230  138.7730  154.4970 N   0  0  0  0  0  0  0  0  0  0  0  0
  144.6940  141.1490  153.7180 H   0  0  0  0  0  0  0  0  0  0  0  0
  144.7030  137.8070  154.5480 H   0  0  0  0  0  0  0  0  0  0  0  0
  146.9870  138.8570  155.2720 S   0  0  0  0  0  0  0  0  0  0  0  0
  148.0490  138.9550  154.4290 H   0  0  0  0  0  0  0  0  0  0  0  0
  146.6690  141.7400  154.1460 C   0  0  0  0  0  2  0  0  0  0  0  0
  146.9580  142.2390  152.7280 C   0  0  0  0  0  2  0  0  0  0  0  0
  146.0100  142.5940  150.4130 C   0  0  0  0  0  1  0  0  0  0  0  0
  145.6940  142.2950  151.8680 C   0  0  0  0  0  2  0  0  0  0  0  0
  143.1490  139.1950  154.3780 C   0  0  0  0  0  2  0  0  0  0  0  0
  142.6030  138.8410  153.0100 C   0  0  0  0  0  0  0  0  0  0  0  0
  141.7260  137.7620  152.8470 C   0  0  0  0  0  3  0  0  0  0  0  0
  141.1850  137.4670  151.5930 C   0  0  0  0  0  3  0  0  0  0  0  0
  141.5080  138.2510  150.4810 C   0  0  0  0  0  0  0  0  0  0  0  0
  142.3840  139.3330  150.6130 C   0  0  0  0  0  0  0  0  0  0  0  0
  142.9230  139.6140  151.8810 C   0  0  0  0  0  3  0  0  0  0  0  0
  140.9410  137.9300  149.2790 O   0  0  0  0  0  0  0  0  0  0  0  0
  140.0270  138.0790  149.1380 H   0  0  0  0  0  0  0  0  0  0  0  0
  142.8130  140.2040  149.6470 O   0  0  0  0  0  0  0  0  0  0  0  0
  143.9350  139.8340  148.8570 C   0  0  0  0  0  1  0  0  0  0  0  0
  1  8  1  0  0  0  0
  1  2  1  0  0  0  0
  2  6  1  1  0  0  0
  3  2  1  0  0  0  0
  3  5  1  0  0  0  0
  4  1  1  0  0  0  0
  7  6  1  0  0  0  0
  9  8  1  0  0  0  0
 10 11  1  0  0  0  0
 11  9  1  0  0  0  0
 12  3  1  0  0  0  0
 13 12  1  0  0  0  0
 14 13  1  0  0  0  0
 15 14  2  0  0  0  0
 16 17  2  0  0  0  0
 16 15  1  0  0  0  0
 17 18  1  0  0  0  0
 18 13  2  0  0  0  0
 19 16  1  0  0  0  0
 20 19  1  0  0  0  0
 21 17  1  0  0  0  0
 22 21  1  0  0  0  0
M  END
>  <MODEL>
2

>  <REMARK>
 VINA RESULT:    -6.027      2.377      3.415
 INTER + INTRA:          -8.928
 INTER:                  -8.219
 INTRA:                  -0.709
 UNBOUND:                -0.434
  Name = CHEMBL311678
  10 active torsions:
  status: ('A' for Active; 'I' for Inactive)
    1  A    between atoms: C_1  and  C_2
    2  A    between atoms: C_2  and  C_3
    3  A    between atoms: C_3  and  C_4
    4  A    between atoms: C_4  and  N_5
    5  A    between atoms: C_6  and  S_7
    6  A    between atoms: N_8  and  C_9
    7  A    between atoms: C_9  and  C_10
    8  A    between atoms: C_13  and  O_14
    9  A    between atoms: C_15  and  O_16
   10  A    between atoms: O_16  and  C_17
                            x       y       z     vdW  Elec       q    Type
                         _______ _______ _______ _____ _____    ______ ____

>  <TORSDO>
F 8

>  <SCORE>
-6.027

>  <RMSD_LB>
2.377

>  <RMSD_UB>
3.415

$$$$
CHEMBL311678
 OpenBabel10172500553D

 22 22  0  0  1  0  0  0  0  0999 V2000
  145.3810  139.2760  151.9070 N   0  0  0  0  0  0  0  0  0  0  0  0
  145.1020  138.6440  152.9900 C   0  0  2  0  0  3  0  0  0  0  0  0
  144.2350  137.5930  153.0310 N   0  0  0  0  0  0  0  0  0  0  0  0
  144.9480  138.9850  151.0730 H   0  0  0  0  0  0  0  0  0  0  0  0
  144.3030  136.9720  153.7900 H   0  0  0  0  0  0  0  0  0  0  0  0
  145.7500  139.0050  154.5780 S   0  0  0  0  0  0  0  0  0  0  0  0
  146.6560  140.0130  154.4790 H   0  0  0  0  0  0  0  0  0  0  0  0
  146.3020  140.3980  151.8510 C   0  0  0  0  0  2  0  0  0  0  0  0
  145.5010  141.7010  151.9080 C   0  0  0  0  0  2  0  0  0  0  0  0
  146.5820  141.9500  149.6380 C   0  0  0  0  0  1  0  0  0  0  0  0
  145.8880  142.6650  150.7840 C   0  0  0  0  0  2  0  0  0  0  0  0
  143.2260  137.3280  152.0350 C   0  0  0  0  0  2  0  0  0  0  0  0
  141.8600  137.7420  152.5440 C   0  0  0  0  0  0  0  0  0  0  0  0
  140.7660  137.8220  151.6740 C   0  0  0  0  0  3  0  0  0  0  0  0
  139.4970  138.1550  152.1540 C   0  0  0  0  0  3  0  0  0  0  0  0
  139.3000  138.4100  153.5150 C   0  0  0  0  0  0  0  0  0  0  0  0
  140.3750  138.3400  154.4070 C   0  0  0  0  0  0  0  0  0  0  0  0
  141.6460  138.0070  153.9070 C   0  0  0  0  0  3  0  0  0  0  0  0
  138.0360  138.7180  153.9370 O   0  0  0  0  0  0  0  0  0  0  0  0
  137.3320  138.1190  153.7840 H   0  0  0  0  0  0  0  0  0  0  0  0
  140.3730  138.5550  155.7600 O   0  0  0  0  0  0  0  0  0  0  0  0
  140.1540  137.4440  156.6180 C   0  0  0  0  0  1  0  0  0  0  0  0
  1  2  1  0  0  0  0
  2  3  1  0  0  0  0
  2  6  1  1  0  0  0
  3  5  1  0  0  0  0
  4  1  1  0  0  0  0
  7  6  1  0  0  0  0
  8  1  1  0  0  0  0
  8  9  1  0  0  0  0
 10 11  1  0  0  0  0
 11  9  1  0  0  0  0
 12 13  1  0  0  0  0
 12  3  1  0  0  0  0
 13 18  1  0  0  0  0
 14 15  1  0  0  0  0
 14 13  2  0  0  0  0
 15 16  2  0  0  0  0
 16 19  1  0  0  0  0
 16 17  1  0  0  0  0
 17 21  1  0  0  0  0
 18 17  2  0  0  0  0
 20 19  1  0  0  0  0
 21 22  1  0  0  0  0
M  END
>  <MODEL>
3

>  <REMARK>
 VINA RESULT:    -5.602      1.851      2.274
 INTER + INTRA:          -8.329
 INTER:                  -7.881
 INTRA:                  -0.448
 UNBOUND:                -0.434
  Name = CHEMBL311678
  10 active torsions:
  status: ('A' for Active; 'I' for Inactive)
    1  A    between atoms: C_1  and  C_2
    2  A    between atoms: C_2  and  C_3
    3  A    between atoms: C_3  and  C_4
    4  A    between atoms: C_4  and  N_5
    5  A    between atoms: C_6  and  S_7
    6  A    between atoms: N_8  and  C_9
    7  A    between atoms: C_9  and  C_10
    8  A    between atoms: C_13  and  O_14
    9  A    between atoms: C_15  and  O_16
   10  A    between atoms: O_16  and  C_17
                            x       y       z     vdW  Elec       q    Type
                         _______ _______ _______ _____ _____    ______ ____

>  <TORSDO>
F 8

>  <SCORE>
-5.602

>  <RMSD_LB>
1.851

>  <RMSD_UB>
2.274

$$$$
CHEMBL311678
 OpenBabel10172500553D

 22 22  0  0  1  0  0  0  0  0999 V2000
  144.3700  140.0230  153.7290 N   0  0  0  0  0  0  0  0  0  0  0  0
  144.1620  138.7830  153.9890 C   0  0  2  0  0  3  0  0  0  0  0  0
  142.9690  138.3130  154.4510 N   0  0  0  0  0  0  0  0  0  0  0  0
  143.6320  140.6590  153.8690 H   0  0  0  0  0  0  0  0  0  0  0  0
  142.7750  137.3560  154.3320 H   0  0  0  0  0  0  0  0  0  0  0  0
  145.3380  137.4940  153.8200 S   0  0  0  0  0  0  0  0  0  0  0  0
  145.5730  137.2650  152.5010 H   0  0  0  0  0  0  0  0  0  0  0  0
  145.6380  140.5350  153.2370 C   0  0  0  0  0  2  0  0  0  0  0  0
  145.4450  141.0480  151.8080 C   0  0  0  0  0  2  0  0  0  0  0  0
  146.3680  142.7090  150.1430 C   0  0  0  0  0  1  0  0  0  0  0  0
  146.0620  142.4330  151.6040 C   0  0  0  0  0  2  0  0  0  0  0  0
  141.9690  139.1240  155.1020 C   0  0  0  0  0  2  0  0  0  0  0  0
  140.5810  138.6050  154.7880 C   0  0  0  0  0  0  0  0  0  0  0  0
  140.0810  138.6430  153.4810 C   0  0  0  0  0  3  0  0  0  0  0  0
  138.8210  138.1180  153.1860 C   0  0  0  0  0  3  0  0  0  0  0  0
  138.0400  137.5410  154.1930 C   0  0  0  0  0  0  0  0  0  0  0  0
  138.5130  137.4920  155.5080 C   0  0  0  0  0  0  0  0  0  0  0  0
  139.7820  138.0280  155.7890 C   0  0  0  0  0  3  0  0  0  0  0  0
  136.8200  137.0280  153.8500 O   0  0  0  0  0  0  0  0  0  0  0  0
  136.3350  136.5200  154.4690 H   0  0  0  0  0  0  0  0  0  0  0  0
  137.8970  136.9720  156.6150 O   0  0  0  0  0  0  0  0  0  0  0  0
  136.9690  137.7890  157.3160 C   0  0  0  0  0  1  0  0  0  0  0  0
  1  4  1  0  0  0  0
  1  2  1  0  0  0  0
  2  6  1  1  0  0  0
  2  3  1  0  0  0  0
  3 12  1  0  0  0  0
  5  3  1  0  0  0  0
  7  6  1  0  0  0  0
  8  1  1  0  0  0  0
  9  8  1  0  0  0  0
 10 11  1  0  0  0  0
 11  9  1  0  0  0  0
 13 12  1  0  0  0  0
 13 18  1  0  0  0  0
 14 13  2  0  0  0  0
 15 14  1  0  0  0  0
 15 16  2  0  0  0  0
 16 17  1  0  0  0  0
 17 18  2  0  0  0  0
 17 21  1  0  0  0  0
 19 16  1  0  0  0  0
 19 20  1  0  0  0  0
 21 22  1  0  0  0  0
M  END
>  <MODEL>
4

>  <REMARK>
 VINA RESULT:    -5.571      1.694      2.063
 INTER + INTRA:          -8.285
 INTER:                  -7.964
 INTRA:                  -0.322
 UNBOUND:                -0.434
  Name = CHEMBL311678
  10 active torsions:
  status: ('A' for Active; 'I' for Inactive)
    1  A    between atoms: C_1  and  C_2
    2  A    between atoms: C_2  and  C_3
    3  A    between atoms: C_3  and  C_4
    4  A    between atoms: C_4  and  N_5
    5  A    between atoms: C_6  and  S_7
    6  A    between atoms: N_8  and  C_9
    7  A    between atoms: C_9  and  C_10
    8  A    between atoms: C_13  and  O_14
    9  A    between atoms: C_15  and  O_16
   10  A    between atoms: O_16  and  C_17
                            x       y       z     vdW  Elec       q    Type
                         _______ _______ _______ _____ _____    ______ ____

>  <TORSDO>
F 8

>  <SCORE>
-5.571

>  <RMSD_LB>
1.694

>  <RMSD_UB>
2.063

$$$$
CHEMBL311678
 OpenBabel10172500553D

 22 22  0  0  1  0  0  0  0  0999 V2000
  145.7660  138.8920  152.2170 N   0  0  0  0  0  0  0  0  0  0  0  0
  145.3720  138.4490  153.3560 C   0  0  2  0  0  3  0  0  0  0  0  0
  144.3650  137.5410  153.4900 N   0  0  0  0  0  0  0  0  0  0  0  0
  145.3180  138.5570  151.4070 H   0  0  0  0  0  0  0  0  0  0  0  0
  144.3250  137.0200  154.3230 H   0  0  0  0  0  0  0  0  0  0  0  0
  146.0230  138.9200  154.9140 S   0  0  0  0  0  0  0  0  0  0  0  0
  145.2770  138.3630  155.9040 H   0  0  0  0  0  0  0  0  0  0  0  0
  146.8370  139.8610  152.0620 C   0  0  0  0  0  2  0  0  0  0  0  0
  146.3740  140.9650  151.1090 C   0  0  0  0  0  2  0  0  0  0  0  0
  146.4480  142.2540  153.2800 C   0  0  0  0  0  1  0  0  0  0  0  0
  145.9190  142.2190  151.8570 C   0  0  0  0  0  2  0  0  0  0  0  0
  143.3540  137.2900  152.4920 C   0  0  0  0  0  2  0  0  0  0  0  0
  142.0150  137.8350  152.9470 C   0  0  0  0  0  0  0  0  0  0  0  0
  141.8640  138.3840  154.2260 C   0  0  0  0  0  3  0  0  0  0  0  0
  140.6420  138.9310  154.6250 C   0  0  0  0  0  3  0  0  0  0  0  0
  139.5510  138.9410  153.7490 C   0  0  0  0  0  0  0  0  0  0  0  0
  139.6730  138.3960  152.4670 C   0  0  0  0  0  0  0  0  0  0  0  0
  140.9080  137.8470  152.0820 C   0  0  0  0  0  3  0  0  0  0  0  0
  138.3810  139.5010  154.1830 O   0  0  0  0  0  0  0  0  0  0  0  0
  137.5620  139.1930  153.8480 H   0  0  0  0  0  0  0  0  0  0  0  0
  138.7240  138.3180  151.4830 O   0  0  0  0  0  0  0  0  0  0  0  0
  138.7810  139.2550  150.4170 C   0  0  0  0  0  1  0  0  0  0  0  0
  1  2  1  0  0  0  0
  2  3  1  0  0  0  0
  2  6  1  1  0  0  0
  3  5  1  0  0  0  0
  4  1  1  0  0  0  0
  6  7  1  0  0  0  0
  8  1  1  0  0  0  0
  9 11  1  0  0  0  0
  9  8  1  0  0  0  0
 11 10  1  0  0  0  0
 12 13  1  0  0  0  0
 12  3  1  0  0  0  0
 13 14  1  0  0  0  0
 14 15  2  0  0  0  0
 16 19  1  0  0  0  0
 16 15  1  0  0  0  0
 17 16  2  0  0  0  0
 18 17  1  0  0  0  0
 18 13  2  0  0  0  0
 20 19  1  0  0  0  0
 21 17  1  0  0  0  0
 22 21  1  0  0  0  0
M  END
>  <MODEL>
5

>  <REMARK>
 VINA RESULT:    -5.455      1.505      2.581
 INTER + INTRA:          -8.122
 INTER:                  -7.629
 INTRA:                  -0.492
 UNBOUND:                -0.434
  Name = CHEMBL311678
  10 active torsions:
  status: ('A' for Active; 'I' for Inactive)
    1  A    between atoms: C_1  and  C_2
    2  A    between atoms: C_2  and  C_3
    3  A    between atoms: C_3  and  C_4
    4  A    between atoms: C_4  and  N_5
    5  A    between atoms: C_6  and  S_7
    6  A    between atoms: N_8  and  C_9
    7  A    between atoms: C_9  and  C_10
    8  A    between atoms: C_13  and  O_14
    9  A    between atoms: C_15  and  O_16
   10  A    between atoms: O_16  and  C_17
                            x       y       z     vdW  Elec       q    Type
                         _______ _______ _______ _____ _____    ______ ____

>  <TORSDO>
F 8

>  <SCORE>
-5.455

>  <RMSD_LB>
1.505

>  <RMSD_UB>
2.581

$$$$
CHEMBL311678
 OpenBabel10172500553D

 22 22  0  0  1  0  0  0  0  0999 V2000
  144.5520  138.0960  149.2000 N   0  0  0  0  0  0  0  0  0  0  0  0
  144.5210  139.2670  148.6760 C   0  0  2  0  0  3  0  0  0  0  0  0
  144.3300  140.4010  149.4070 N   0  0  0  0  0  0  0  0  0  0  0  0
  144.4330  138.0180  150.1740 H   0  0  0  0  0  0  0  0  0  0  0  0
  144.6230  141.2540  149.0160 H   0  0  0  0  0  0  0  0  0  0  0  0
  144.6990  139.6260  146.9690 S   0  0  0  0  0  0  0  0  0  0  0  0
  144.0960  140.8120  146.6900 H   0  0  0  0  0  0  0  0  0  0  0  0
  144.7540  136.8800  148.4310 C   0  0  0  0  0  2  0  0  0  0  0  0
  144.3900  135.6750  149.3020 C   0  0  0  0  0  2  0  0  0  0  0  0
  141.9150  135.6160  148.7990 C   0  0  0  0  0  1  0  0  0  0  0  0
  143.2330  134.8670  148.7120 C   0  0  0  0  0  2  0  0  0  0  0  0
  143.7270  140.4350  150.7170 C   0  0  0  0  0  2  0  0  0  0  0  0
  144.7600  140.7970  151.7650 C   0  0  0  0  0  0  0  0  0  0  0  0
  145.5040  141.9780  151.6590 C   0  0  0  0  0  3  0  0  0  0  0  0
  146.4200  142.3340  152.6520 C   0  0  0  0  0  3  0  0  0  0  0  0
  146.6030  141.5160  153.7720 C   0  0  0  0  0  0  0  0  0  0  0  0
  145.8760  140.3290  153.9030 C   0  0  0  0  0  0  0  0  0  0  0  0
  144.9610  139.9830  152.8930 C   0  0  0  0  0  3  0  0  0  0  0  0
  147.5010  141.9160  154.7230 O   0  0  0  0  0  0  0  0  0  0  0  0
  148.3690  142.1620  154.4720 H   0  0  0  0  0  0  0  0  0  0  0  0
  145.9210  139.4110  154.9180 O   0  0  0  0  0  0  0  0  0  0  0  0
  146.6090  138.1880  154.6910 C   0  0  0  0  0  1  0  0  0  0  0  0
  1  4  1  0  0  0  0
  2  6  1  6  0  0  0
  2  1  1  0  0  0  0
  2  3  1  0  0  0  0
  3 12  1  0  0  0  0
  5  3  1  0  0  0  0
  7  6  1  0  0  0  0
  8  1  1  0  0  0  0
  8  9  1  0  0  0  0
 11 10  1  0  0  0  0
 11  9  1  0  0  0  0
 12 13  1  0  0  0  0
 13 18  1  0  0  0  0
 14 13  2  0  0  0  0
 14 15  1  0  0  0  0
 15 16  2  0  0  0  0
 16 17  1  0  0  0  0
 16 19  1  0  0  0  0
 17 21  1  0  0  0  0
 18 17  2  0  0  0  0
 20 19  1  0  0  0  0
 22 21  1  0  0  0  0
M  END
>  <MODEL>
6

>  <REMARK>
 VINA RESULT:    -5.287      4.993      7.240
 INTER + INTRA:          -7.884
 INTER:                  -7.450
 INTRA:                  -0.434
 UNBOUND:                -0.434
  Name = CHEMBL311678
  10 active torsions:
  status: ('A' for Active; 'I' for Inactive)
    1  A    between atoms: C_1  and  C_2
    2  A    between atoms: C_2  and  C_3
    3  A    between atoms: C_3  and  C_4
    4  A    between atoms: C_4  and  N_5
    5  A    between atoms: C_6  and  S_7
    6  A    between atoms: N_8  and  C_9
    7  A    between atoms: C_9  and  C_10
    8  A    between atoms: C_13  and  O_14
    9  A    between atoms: C_15  and  O_16
   10  A    between atoms: O_16  and  C_17
                            x       y       z     vdW  Elec       q    Type
                         _______ _______ _______ _____ _____    ______ ____

>  <TORSDO>
F 8

>  <SCORE>
-5.287

>  <RMSD_LB>
4.993

>  <RMSD_UB>
7.240

$$$$
CHEMBL311678
 OpenBabel10172500553D

 22 22  0  0  1  0  0  0  0  0999 V2000
  136.1910  133.1690  143.4010 N   0  0  0  0  0  0  0  0  0  0  0  0
  135.8840  132.8600  144.6080 C   0  0  2  0  0  3  0  0  0  0  0  0
  134.9720  133.5570  145.3430 N   0  0  0  0  0  0  0  0  0  0  0  0
  135.7450  133.9450  142.9910 H   0  0  0  0  0  0  0  0  0  0  0  0
  134.5590  133.1040  146.1120 H   0  0  0  0  0  0  0  0  0  0  0  0
  136.5660  131.5300  145.5250 S   0  0  0  0  0  0  0  0  0  0  0  0
  135.9010  131.4050  146.7040 H   0  0  0  0  0  0  0  0  0  0  0  0
  137.1620  132.4350  142.6080 C   0  0  0  0  0  2  0  0  0  0  0  0
  137.2810  133.0940  141.2320 C   0  0  0  0  0  2  0  0  0  0  0  0
  139.0060  132.9530  139.3920 C   0  0  0  0  0  1  0  0  0  0  0  0
  138.7380  133.3400  140.8360 C   0  0  0  0  0  2  0  0  0  0  0  0
  134.5700  134.9150  145.0690 C   0  0  0  0  0  2  0  0  0  0  0  0
  133.9920  135.5570  146.3140 C   0  0  0  0  0  0  0  0  0  0  0  0
  133.3440  136.7960  146.2440 C   0  0  0  0  0  3  0  0  0  0  0  0
  132.7680  137.3620  147.3840 C   0  0  0  0  0  3  0  0  0  0  0  0
  132.8260  136.6950  148.6130 C   0  0  0  0  0  0  0  0  0  0  0  0
  133.4710  135.4580  148.7120 C   0  0  0  0  0  0  0  0  0  0  0  0
  134.0480  134.9040  147.5560 C   0  0  0  0  0  3  0  0  0  0  0  0
  132.2350  137.2860  149.6950 O   0  0  0  0  0  0  0  0  0  0  0  0
  132.3310  138.2060  149.8370 H   0  0  0  0  0  0  0  0  0  0  0  0
  133.6270  134.6670  149.8190 O   0  0  0  0  0  0  0  0  0  0  0  0
  133.7550  133.2640  149.6310 C   0  0  0  0  0  1  0  0  0  0  0  0
  1  2  1  0  0  0  0
  2  3  1  0  0  0  0
  2  6  1  1  0  0  0
  3  5  1  0  0  0  0
  4  1  1  0  0  0  0
  6  7  1  0  0  0  0
  8  1  1  0  0  0  0
  9  8  1  0  0  0  0
 10 11  1  0  0  0  0
 11  9  1  0  0  0  0
 12  3  1  0  0  0  0
 12 13  1  0  0  0  0
 13 18  1  0  0  0  0
 14 13  2  0  0  0  0
 14 15  1  0  0  0  0
 15 16  2  0  0  0  0
 16 17  1  0  0  0  0
 16 19  1  0  0  0  0
 17 21  1  0  0  0  0
 18 17  2  0  0  0  0
 19 20  1  0  0  0  0
 22 21  1  0  0  0  0
M  END
>  <MODEL>
7

>  <REMARK>
 VINA RESULT:    -5.270     12.387     13.258
 INTER + INTRA:          -7.860
 INTER:                  -7.566
 INTRA:                  -0.294
 UNBOUND:                -0.434
  Name = CHEMBL311678
  10 active torsions:
  status: ('A' for Active; 'I' for Inactive)
    1  A    between atoms: C_1  and  C_2
    2  A    between atoms: C_2  and  C_3
    3  A    between atoms: C_3  and  C_4
    4  A    between atoms: C_4  and  N_5
    5  A    between atoms: C_6  and  S_7
    6  A    between atoms: N_8  and  C_9
    7  A    between atoms: C_9  and  C_10
    8  A    between atoms: C_13  and  O_14
    9  A    between atoms: C_15  and  O_16
   10  A    between atoms: O_16  and  C_17
                            x       y       z     vdW  Elec       q    Type
                         _______ _______ _______ _____ _____    ______ ____

>  <TORSDO>
F 8

>  <SCORE>
-5.270

>  <RMSD_LB>
12.387

>  <RMSD_UB>
13.258

$$$$
CHEMBL311678
 OpenBabel10172500553D

 22 22  0  0  1  0  0  0  0  0999 V2000
  135.9690  138.3060  148.2790 N   0  0  0  0  0  0  0  0  0  0  0  0
  135.3300  138.0640  147.1920 C   0  0  2  0  0  3  0  0  0  0  0  0
  134.0400  137.6240  147.1730 N   0  0  0  0  0  0  0  0  0  0  0  0
  135.5020  138.1660  149.1340 H   0  0  0  0  0  0  0  0  0  0  0  0
  133.5210  137.7580  146.3480 H   0  0  0  0  0  0  0  0  0  0  0  0
  135.9730  138.2350  145.5700 S   0  0  0  0  0  0  0  0  0  0  0  0
  135.4230  139.3270  144.9770 H   0  0  0  0  0  0  0  0  0  0  0  0
  137.3430  138.7740  148.3120 C   0  0  0  0  0  2  0  0  0  0  0  0
  137.3620  140.2220  148.8080 C   0  0  0  0  0  2  0  0  0  0  0  0
  139.0780  139.5360  150.5310 C   0  0  0  0  0  1  0  0  0  0  0  0
  138.6800  140.5770  149.4990 C   0  0  0  0  0  2  0  0  0  0  0  0
  133.3830  136.9750  148.2810 C   0  0  0  0  0  2  0  0  0  0  0  0
  133.6950  135.4920  148.2860 C   0  0  0  0  0  0  0  0  0  0  0  0
  133.9070  134.8100  149.4900 C   0  0  0  0  0  3  0  0  0  0  0  0
  134.1450  133.4340  149.4960 C   0  0  0  0  0  3  0  0  0  0  0  0
  134.1680  132.7140  148.2960 C   0  0  0  0  0  0  0  0  0  0  0  0
  133.9630  133.3700  147.0790 C   0  0  0  0  0  0  0  0  0  0  0  0
  133.7280  134.7560  147.0900 C   0  0  0  0  0  3  0  0  0  0  0  0
  134.3910  131.3670  148.3570 O   0  0  0  0  0  0  0  0  0  0  0  0
  134.9520  131.0140  149.0190 H   0  0  0  0  0  0  0  0  0  0  0  0
  133.9510  132.8370  145.8170 O   0  0  0  0  0  0  0  0  0  0  0  0
  134.9600  133.2460  144.9040 C   0  0  0  0  0  1  0  0  0  0  0  0
  1  8  1  0  0  0  0
  1  4  1  0  0  0  0
  2  6  1  1  0  0  0
  2  1  1  0  0  0  0
  3  2  1  0  0  0  0
  3 12  1  0  0  0  0
  5  3  1  0  0  0  0
  7  6  1  0  0  0  0
  8  9  1  0  0  0  0
  9 11  1  0  0  0  0
 11 10  1  0  0  0  0
 12 13  1  0  0  0  0
 13 14  1  0  0  0  0
 14 15  2  0  0  0  0
 16 19  1  0  0  0  0
 16 15  1  0  0  0  0
 17 18  1  0  0  0  0
 17 16  2  0  0  0  0
 18 13  2  0  0  0  0
 19 20  1  0  0  0  0
 21 17  1  0  0  0  0
 22 21  1  0  0  0  0
M  END
>  <MODEL>
8

>  <REMARK>
 VINA RESULT:    -5.245      8.777     11.017
 INTER + INTRA:          -7.825
 INTER:                  -7.382
 INTRA:                  -0.443
 UNBOUND:                -0.434
  Name = CHEMBL311678
  10 active torsions:
  status: ('A' for Active; 'I' for Inactive)
    1  A    between atoms: C_1  and  C_2
    2  A    between atoms: C_2  and  C_3
    3  A    between atoms: C_3  and  C_4
    4  A    between atoms: C_4  and  N_5
    5  A    between atoms: C_6  and  S_7
    6  A    between atoms: N_8  and  C_9
    7  A    between atoms: C_9  and  C_10
    8  A    between atoms: C_13  and  O_14
    9  A    between atoms: C_15  and  O_16
   10  A    between atoms: O_16  and  C_17
                            x       y       z     vdW  Elec       q    Type
                         _______ _______ _______ _____ _____    ______ ____

>  <TORSDO>
F 8

>  <SCORE>
-5.245

>  <RMSD_LB>
8.777

>  <RMSD_UB>
11.017

$$$$
CHEMBL311678
 OpenBabel10172500553D

 22 22  0  0  1  0  0  0  0  0999 V2000
  135.1460  137.5870  147.3310 N   0  0  0  0  0  0  0  0  0  0  0  0
  134.3510  136.6770  146.9000 C   0  0  2  0  0  3  0  0  0  0  0  0
  133.0700  136.5400  147.3450 N   0  0  0  0  0  0  0  0  0  0  0  0
  134.8120  138.2130  148.0140 H   0  0  0  0  0  0  0  0  0  0  0  0
  132.4360  136.0520  146.7730 H   0  0  0  0  0  0  0  0  0  0  0  0
  134.7480  135.4610  145.7010 S   0  0  0  0  0  0  0  0  0  0  0  0
  134.9780  134.2730  146.3190 H   0  0  0  0  0  0  0  0  0  0  0  0
  136.5130  137.7430  146.8650 C   0  0  0  0  0  2  0  0  0  0  0  0
  136.9000  139.2220  146.9470 C   0  0  0  0  0  2  0  0  0  0  0  0
  137.3410  140.6660  148.9720 C   0  0  0  0  0  1  0  0  0  0  0  0
  137.8360  139.5080  148.1230 C   0  0  0  0  0  2  0  0  0  0  0  0
  132.5820  137.0620  148.5970 C   0  0  0  0  0  2  0  0  0  0  0  0
  132.8840  136.0980  149.7270 C   0  0  0  0  0  0  0  0  0  0  0  0
  132.6320  134.7280  149.5850 C   0  0  0  0  0  3  0  0  0  0  0  0
  132.9580  133.8350  150.6080 C   0  0  0  0  0  3  0  0  0  0  0  0
  133.5470  134.2970  151.7900 C   0  0  0  0  0  0  0  0  0  0  0  0
  133.8070  135.6600  151.9600 C   0  0  0  0  0  0  0  0  0  0  0  0
  133.4700  136.5460  150.9220 C   0  0  0  0  0  3  0  0  0  0  0  0
  133.8590  133.3800  152.7550 O   0  0  0  0  0  0  0  0  0  0  0  0
  133.3190  133.2980  153.5160 H   0  0  0  0  0  0  0  0  0  0  0  0
  134.3720  136.2900  153.0370 O   0  0  0  0  0  0  0  0  0  0  0  0
  135.7500  136.0670  153.3010 C   0  0  0  0  0  1  0  0  0  0  0  0
  1  4  1  0  0  0  0
  2  6  1  1  0  0  0
  2  1  1  0  0  0  0
  2  3  1  0  0  0  0
  3 12  1  0  0  0  0
  5  3  1  0  0  0  0
  6  7  1  0  0  0  0
  8  9  1  0  0  0  0
  8  1  1  0  0  0  0
  9 11  1  0  0  0  0
 11 10  1  0  0  0  0
 12 13  1  0  0  0  0
 13 18  1  0  0  0  0
 14 13  2  0  0  0  0
 14 15  1  0  0  0  0
 15 16  2  0  0  0  0
 16 17  1  0  0  0  0
 16 19  1  0  0  0  0
 17 21  1  0  0  0  0
 18 17  2  0  0  0  0
 19 20  1  0  0  0  0
 21 22  1  0  0  0  0
M  END
>  <MODEL>
9

>  <REMARK>
 VINA RESULT:    -5.210      8.967     10.726
 INTER + INTRA:          -7.777
 INTER:                  -7.343
 INTRA:                  -0.434
 UNBOUND:                -0.434
  Name = CHEMBL311678
  10 active torsions:
  status: ('A' for Active; 'I' for Inactive)
    1  A    between atoms: C_1  and  C_2
    2  A    between atoms: C_2  and  C_3
    3  A    between atoms: C_3  and  C_4
    4  A    between atoms: C_4  and  N_5
    5  A    between atoms: C_6  and  S_7
    6  A    between atoms: N_8  and  C_9
    7  A    between atoms: C_9  and  C_10
    8  A    between atoms: C_13  and  O_14
    9  A    between atoms: C_15  and  O_16
   10  A    between atoms: O_16  and  C_17
                            x       y       z     vdW  Elec       q    Type
                         _______ _______ _______ _____ _____    ______ ____

>  <TORSDO>
F 8

>  <SCORE>
-5.210

>  <RMSD_LB>
8.967

>  <RMSD_UB>
10.726

$$$$
