CHEMBL4447574
 OpenBabel10172500363D

 16 16  0  0  0  0  0  0  0  0999 V2000
  146.5350  141.7470  152.6210 C   0  0  0  0  0  0  0  0  0  0  0  0
  147.6010  142.2570  151.8690 C   0  0  0  0  0  3  0  0  0  0  0  0
  147.5160  142.3110  150.4790 C   0  0  0  0  0  3  0  0  0  0  0  0
  146.3740  141.8460  149.8290 C   0  0  0  0  0  0  0  0  0  0  0  0
  146.3480  141.9300  148.4900 F   0  0  0  0  0  0  0  0  0  0  0  0
  145.3030  141.3180  150.5520 C   0  0  0  0  0  0  0  0  0  0  0  0
  145.3970  141.2670  151.9490 C   0  0  0  0  0  3  0  0  0  0  0  0
  144.1270  140.8270  150.0500 O   0  0  0  0  0  0  0  0  0  0  0  0
  143.3180  140.0600  150.9350 C   0  0  0  0  0  1  0  0  0  0  0  0
  146.6080  141.7150  154.1220 C   0  0  0  0  0  2  0  0  0  0  0  0
  147.8410  139.7230  154.8020 C   0  0  0  0  0  0  0  0  0  0  0  0
  148.9140  140.2430  154.5140 O   0  0  0  0  0  0  0  0  0  0  0  0
  146.6330  140.3680  154.6400 N   0  0  0  0  0  0  0  0  0  0  0  0
  145.7930  139.9120  154.8760 H   0  0  0  0  0  0  0  0  0  0  0  0
  146.9450  137.4060  154.4140 C   0  0  0  0  0  1  0  0  0  0  0  0
  147.7140  138.3180  155.3560 C   0  0  0  0  0  2  0  0  0  0  0  0
  1 10  1  0  0  0  0
  2  1  2  0  0  0  0
  3  2  1  0  0  0  0
  4  3  2  0  0  0  0
  4  6  1  0  0  0  0
  5  4  1  0  0  0  0
  6  7  2  0  0  0  0
  7  1  1  0  0  0  0
  8  6  1  0  0  0  0
  8  9  1  0  0  0  0
 10 13  1  0  0  0  0
 11 16  1  0  0  0  0
 12 11  2  0  0  0  0
 13 11  1  0  0  0  0
 13 14  1  0  0  0  0
 15 16  1  0  0  0  0
M  END
>  <MODEL>
1

>  <REMARK>
 VINA RESULT:    -5.777      0.000      0.000
 INTER + INTRA:          -7.491
 INTER:                  -7.123
 INTRA:                  -0.367
 UNBOUND:                -0.363
  Name = CHEMBL4447574
  6 active torsions:
  status: ('A' for Active; 'I' for Inactive)
    1  A    between atoms: C_1  and  C_2
    2  A    between atoms: C_2  and  C_3
    3  A    between atoms: N_5  and  C_6
    4  A    between atoms: C_6  and  C_7
    5  A    between atoms: C_12  and  O_13
    6  A    between atoms: O_13  and  C_14
                            x       y       z     vdW  Elec       q    Type
                         _______ _______ _______ _____ _____    ______ ____

>  <TORSDO>
F 4

>  <SCORE>
-5.777

>  <RMSD_LB>
0.000

>  <RMSD_UB>
0.000

$$$$
CHEMBL4447574
 OpenBabel10172500363D

 16 16  0  0  0  0  0  0  0  0999 V2000
  133.8190  135.2650  152.1130 C   0  0  0  0  0  0  0  0  0  0  0  0
  134.9930  135.9860  151.8620 C   0  0  0  0  0  3  0  0  0  0  0  0
  136.0150  136.0130  152.8080 C   0  0  0  0  0  3  0  0  0  0  0  0
  135.8690  135.3320  154.0150 C   0  0  0  0  0  0  0  0  0  0  0  0
  136.8900  135.3910  154.8840 F   0  0  0  0  0  0  0  0  0  0  0  0
  134.7030  134.6200  154.3000 C   0  0  0  0  0  0  0  0  0  0  0  0
  133.6800  134.5980  153.3420 C   0  0  0  0  0  3  0  0  0  0  0  0
  134.4230  133.9110  155.4370 O   0  0  0  0  0  0  0  0  0  0  0  0
  134.3640  134.6430  156.6560 C   0  0  0  0  0  1  0  0  0  0  0  0
  132.7250  135.2060  151.0830 C   0  0  0  0  0  2  0  0  0  0  0  0
  133.0310  134.4750  148.7760 C   0  0  0  0  0  0  0  0  0  0  0  0
  132.9250  135.6240  148.3590 O   0  0  0  0  0  0  0  0  0  0  0  0
  132.9400  134.1580  150.1150 N   0  0  0  0  0  0  0  0  0  0  0  0
  133.0230  133.2210  150.4090 H   0  0  0  0  0  0  0  0  0  0  0  0
  134.1880  132.2580  148.5200 C   0  0  0  0  0  1  0  0  0  0  0  0
  133.2600  133.2760  147.8780 C   0  0  0  0  0  2  0  0  0  0  0  0
  1  7  1  0  0  0  0
  2  1  2  0  0  0  0
  2  3  1  0  0  0  0
  3  4  2  0  0  0  0
  4  6  1  0  0  0  0
  4  5  1  0  0  0  0
  6  8  1  0  0  0  0
  7  6  2  0  0  0  0
  8  9  1  0  0  0  0
 10  1  1  0  0  0  0
 11 13  1  0  0  0  0
 12 11  2  0  0  0  0
 13 14  1  0  0  0  0
 13 10  1  0  0  0  0
 16 15  1  0  0  0  0
 16 11  1  0  0  0  0
M  END
>  <MODEL>
2

>  <REMARK>
 VINA RESULT:    -5.538     12.535     14.593
 INTER + INTRA:          -7.196
 INTER:                  -6.900
 INTRA:                  -0.296
 UNBOUND:                -0.363
  Name = CHEMBL4447574
  6 active torsions:
  status: ('A' for Active; 'I' for Inactive)
    1  A    between atoms: C_1  and  C_2
    2  A    between atoms: C_2  and  C_3
    3  A    between atoms: N_5  and  C_6
    4  A    between atoms: C_6  and  C_7
    5  A    between atoms: C_12  and  O_13
    6  A    between atoms: O_13  and  C_14
                            x       y       z     vdW  Elec       q    Type
                         _______ _______ _______ _____ _____    ______ ____

>  <TORSDO>
F 4

>  <SCORE>
-5.538

>  <RMSD_LB>
12.535

>  <RMSD_UB>
14.593

$$$$
CHEMBL4447574
 OpenBabel10172500363D

 16 16  0  0  0  0  0  0  0  0999 V2000
  133.0850  134.3360  149.7440 C   0  0  0  0  0  0  0  0  0  0  0  0
  133.5530  133.0530  149.4300 C   0  0  0  0  0  3  0  0  0  0  0  0
  134.0860  132.7890  148.1700 C   0  0  0  0  0  3  0  0  0  0  0  0
  134.1460  133.7980  147.2110 C   0  0  0  0  0  0  0  0  0  0  0  0
  134.6750  133.4850  146.0180 F   0  0  0  0  0  0  0  0  0  0  0  0
  133.6720  135.0810  147.4900 C   0  0  0  0  0  0  0  0  0  0  0  0
  133.1370  135.3380  148.7590 C   0  0  0  0  0  3  0  0  0  0  0  0
  133.6660  136.1620  146.6490 O   0  0  0  0  0  0  0  0  0  0  0  0
  132.5630  137.0560  146.7540 C   0  0  0  0  0  1  0  0  0  0  0  0
  132.5370  134.6340  151.1110 C   0  0  0  0  0  2  0  0  0  0  0  0
  134.1820  135.1700  152.8300 C   0  0  0  0  0  0  0  0  0  0  0  0
  134.1280  136.3660  152.5630 O   0  0  0  0  0  0  0  0  0  0  0  0
  133.4350  134.2220  152.1630 N   0  0  0  0  0  0  0  0  0  0  0  0
  133.5140  133.2700  152.4040 H   0  0  0  0  0  0  0  0  0  0  0  0
  134.6170  134.9960  155.3010 C   0  0  0  0  0  1  0  0  0  0  0  0
  135.0770  134.5940  153.9090 C   0  0  0  0  0  2  0  0  0  0  0  0
  1 10  1  0  0  0  0
  2  1  1  0  0  0  0
  3  2  2  0  0  0  0
  4  6  2  0  0  0  0
  4  3  1  0  0  0  0
  5  4  1  0  0  0  0
  6  7  1  0  0  0  0
  7  1  2  0  0  0  0
  8  9  1  0  0  0  0
  8  6  1  0  0  0  0
 10 13  1  0  0  0  0
 11 16  1  0  0  0  0
 12 11  2  0  0  0  0
 13 14  1  0  0  0  0
 13 11  1  0  0  0  0
 16 15  1  0  0  0  0
M  END
>  <MODEL>
3

>  <REMARK>
 VINA RESULT:    -5.494     13.523     14.527
 INTER + INTRA:          -7.141
 INTER:                  -6.825
 INTRA:                  -0.317
 UNBOUND:                -0.363
  Name = CHEMBL4447574
  6 active torsions:
  status: ('A' for Active; 'I' for Inactive)
    1  A    between atoms: C_1  and  C_2
    2  A    between atoms: C_2  and  C_3
    3  A    between atoms: N_5  and  C_6
    4  A    between atoms: C_6  and  C_7
    5  A    between atoms: C_12  and  O_13
    6  A    between atoms: O_13  and  C_14
                            x       y       z     vdW  Elec       q    Type
                         _______ _______ _______ _____ _____    ______ ____

>  <TORSDO>
F 4

>  <SCORE>
-5.494

>  <RMSD_LB>
13.523

>  <RMSD_UB>
14.527

$$$$
CHEMBL4447574
 OpenBabel10172500363D

 16 16  0  0  0  0  0  0  0  0999 V2000
  140.3820  138.2770  153.3730 C   0  0  0  0  0  0  0  0  0  0  0  0
  140.1820  137.7880  152.0750 C   0  0  0  0  0  3  0  0  0  0  0  0
  141.2520  137.2690  151.3490 C   0  0  0  0  0  3  0  0  0  0  0  0
  142.5290  137.2430  151.9060 C   0  0  0  0  0  0  0  0  0  0  0  0
  143.5170  136.7250  151.1600 F   0  0  0  0  0  0  0  0  0  0  0  0
  142.7610  137.7390  153.1900 C   0  0  0  0  0  0  0  0  0  0  0  0
  141.6790  138.2600  153.9130 C   0  0  0  0  0  3  0  0  0  0  0  0
  143.9550  137.7780  153.8590 O   0  0  0  0  0  0  0  0  0  0  0  0
  144.4130  139.0560  154.2870 C   0  0  0  0  0  1  0  0  0  0  0  0
  139.2260  138.8110  154.1730 C   0  0  0  0  0  2  0  0  0  0  0  0
  137.7970  138.1890  156.0480 C   0  0  0  0  0  0  0  0  0  0  0  0
  136.9180  138.9640  155.6840 O   0  0  0  0  0  0  0  0  0  0  0  0
  138.9880  138.0420  155.3700 N   0  0  0  0  0  0  0  0  0  0  0  0
  139.6710  137.4140  155.7010 H   0  0  0  0  0  0  0  0  0  0  0  0
  137.3710  135.8730  156.9300 C   0  0  0  0  0  1  0  0  0  0  0  0
  137.6840  137.3180  157.2830 C   0  0  0  0  0  2  0  0  0  0  0  0
  1  7  1  0  0  0  0
  1 10  1  0  0  0  0
  2  1  2  0  0  0  0
  3  4  2  0  0  0  0
  3  2  1  0  0  0  0
  4  6  1  0  0  0  0
  5  4  1  0  0  0  0
  6  8  1  0  0  0  0
  6  7  2  0  0  0  0
  8  9  1  0  0  0  0
 10 13  1  0  0  0  0
 11 16  1  0  0  0  0
 12 11  2  0  0  0  0
 13 14  1  0  0  0  0
 13 11  1  0  0  0  0
 15 16  1  0  0  0  0
M  END
>  <MODEL>
4

>  <REMARK>
 VINA RESULT:    -5.464      6.140      7.951
 INTER + INTRA:          -7.105
 INTER:                  -6.875
 INTRA:                  -0.229
 UNBOUND:                -0.363
  Name = CHEMBL4447574
  6 active torsions:
  status: ('A' for Active; 'I' for Inactive)
    1  A    between atoms: C_1  and  C_2
    2  A    between atoms: C_2  and  C_3
    3  A    between atoms: N_5  and  C_6
    4  A    between atoms: C_6  and  C_7
    5  A    between atoms: C_12  and  O_13
    6  A    between atoms: O_13  and  C_14
                            x       y       z     vdW  Elec       q    Type
                         _______ _______ _______ _____ _____    ______ ____

>  <TORSDO>
F 4

>  <SCORE>
-5.464

>  <RMSD_LB>
6.140

>  <RMSD_UB>
7.951

$$$$
CHEMBL4447574
 OpenBabel10172500363D

 16 16  0  0  0  0  0  0  0  0999 V2000
  133.7370  134.5270  151.7750 C   0  0  0  0  0  0  0  0  0  0  0  0
  133.7710  135.9210  151.6340 C   0  0  0  0  0  3  0  0  0  0  0  0
  133.3170  136.5170  150.4590 C   0  0  0  0  0  3  0  0  0  0  0  0
  132.8380  135.7300  149.4140 C   0  0  0  0  0  0  0  0  0  0  0  0
  132.4090  136.3610  148.3110 F   0  0  0  0  0  0  0  0  0  0  0  0
  132.8080  134.3380  149.5210 C   0  0  0  0  0  0  0  0  0  0  0  0
  133.2670  133.7460  150.7060 C   0  0  0  0  0  3  0  0  0  0  0  0
  132.3680  133.4450  148.5810 O   0  0  0  0  0  0  0  0  0  0  0  0
  133.2120  133.2230  147.4570 C   0  0  0  0  0  1  0  0  0  0  0  0
  134.1980  133.8800  153.0520 C   0  0  0  0  0  2  0  0  0  0  0  0
  134.9840  135.0140  155.0630 C   0  0  0  0  0  0  0  0  0  0  0  0
  133.9840  134.6780  155.6890 O   0  0  0  0  0  0  0  0  0  0  0  0
  135.1860  134.6740  153.7430 N   0  0  0  0  0  0  0  0  0  0  0  0
  136.0000  134.9700  153.2740 H   0  0  0  0  0  0  0  0  0  0  0  0
  136.8750  136.6020  154.5900 C   0  0  0  0  0  1  0  0  0  0  0  0
  136.1030  135.8440  155.6580 C   0  0  0  0  0  2  0  0  0  0  0  0
  1 10  1  0  0  0  0
  2  1  1  0  0  0  0
  3  2  2  0  0  0  0
  4  6  2  0  0  0  0
  4  3  1  0  0  0  0
  5  4  1  0  0  0  0
  6  7  1  0  0  0  0
  7  1  2  0  0  0  0
  8  6  1  0  0  0  0
  9  8  1  0  0  0  0
 10 13  1  0  0  0  0
 11 16  1  0  0  0  0
 11 12  2  0  0  0  0
 13 11  1  0  0  0  0
 14 13  1  0  0  0  0
 15 16  1  0  0  0  0
M  END
>  <MODEL>
5

>  <REMARK>
 VINA RESULT:    -5.440     11.974     14.055
 INTER + INTRA:          -7.075
 INTER:                  -6.691
 INTRA:                  -0.384
 UNBOUND:                -0.363
  Name = CHEMBL4447574
  6 active torsions:
  status: ('A' for Active; 'I' for Inactive)
    1  A    between atoms: C_1  and  C_2
    2  A    between atoms: C_2  and  C_3
    3  A    between atoms: N_5  and  C_6
    4  A    between atoms: C_6  and  C_7
    5  A    between atoms: C_12  and  O_13
    6  A    between atoms: O_13  and  C_14
                            x       y       z     vdW  Elec       q    Type
                         _______ _______ _______ _____ _____    ______ ____

>  <TORSDO>
F 4

>  <SCORE>
-5.440

>  <RMSD_LB>
11.974

>  <RMSD_UB>
14.055

$$$$
CHEMBL4447574
 OpenBabel10172500363D

 16 16  0  0  0  0  0  0  0  0999 V2000
  145.3920  140.6900  152.7030 C   0  0  0  0  0  0  0  0  0  0  0  0
  144.8340  141.1130  151.4900 C   0  0  0  0  0  3  0  0  0  0  0  0
  145.5780  141.9020  150.6140 C   0  0  0  0  0  3  0  0  0  0  0  0
  146.8760  142.2840  150.9470 C   0  0  0  0  0  0  0  0  0  0  0  0
  147.5440  143.0380  150.0610 F   0  0  0  0  0  0  0  0  0  0  0  0
  147.4510  141.8910  152.1570 C   0  0  0  0  0  0  0  0  0  0  0  0
  146.6960  141.0980  153.0310 C   0  0  0  0  0  3  0  0  0  0  0  0
  148.7070  142.1900  152.6120 O   0  0  0  0  0  0  0  0  0  0  0  0
  148.9910  141.8800  153.9720 C   0  0  0  0  0  1  0  0  0  0  0  0
  144.6060  139.8130  153.6380 C   0  0  0  0  0  2  0  0  0  0  0  0
  142.7040  138.3500  153.2020 C   0  0  0  0  0  0  0  0  0  0  0  0
  143.3320  137.3620  153.5700 O   0  0  0  0  0  0  0  0  0  0  0  0
  143.2470  139.6170  153.1920 N   0  0  0  0  0  0  0  0  0  0  0  0
  142.7110  140.3830  152.8820 H   0  0  0  0  0  0  0  0  0  0  0  0
  141.1150  137.3460  151.5320 C   0  0  0  0  0  1  0  0  0  0  0  0
  141.2720  138.2940  152.7100 C   0  0  0  0  0  2  0  0  0  0  0  0
  1  7  1  0  0  0  0
  1 10  1  0  0  0  0
  2  1  2  0  0  0  0
  3  4  2  0  0  0  0
  3  2  1  0  0  0  0
  4  6  1  0  0  0  0
  5  4  1  0  0  0  0
  6  8  1  0  0  0  0
  6  7  2  0  0  0  0
  8  9  1  0  0  0  0
 11 12  2  0  0  0  0
 13 11  1  0  0  0  0
 13 10  1  0  0  0  0
 14 13  1  0  0  0  0
 15 16  1  0  0  0  0
 16 11  1  0  0  0  0
M  END
>  <MODEL>
6

>  <REMARK>
 VINA RESULT:    -5.429      2.555      4.403
 INTER + INTRA:          -7.062
 INTER:                  -6.778
 INTRA:                  -0.284
 UNBOUND:                -0.363
  Name = CHEMBL4447574
  6 active torsions:
  status: ('A' for Active; 'I' for Inactive)
    1  A    between atoms: C_1  and  C_2
    2  A    between atoms: C_2  and  C_3
    3  A    between atoms: N_5  and  C_6
    4  A    between atoms: C_6  and  C_7
    5  A    between atoms: C_12  and  O_13
    6  A    between atoms: O_13  and  C_14
                            x       y       z     vdW  Elec       q    Type
                         _______ _______ _______ _____ _____    ______ ____

>  <TORSDO>
F 4

>  <SCORE>
-5.429

>  <RMSD_LB>
2.555

>  <RMSD_UB>
4.403

$$$$
CHEMBL4447574
 OpenBabel10172500363D

 16 16  0  0  0  0  0  0  0  0999 V2000
  136.9410  136.2190  155.5210 C   0  0  0  0  0  0  0  0  0  0  0  0
  137.7420  136.1420  156.6680 C   0  0  0  0  0  3  0  0  0  0  0  0
  138.9200  136.8810  156.7510 C   0  0  0  0  0  3  0  0  0  0  0  0
  139.3140  137.6920  155.6890 C   0  0  0  0  0  0  0  0  0  0  0  0
  140.4550  138.3840  155.8310 F   0  0  0  0  0  0  0  0  0  0  0  0
  138.5450  137.7750  154.5270 C   0  0  0  0  0  0  0  0  0  0  0  0
  137.3610  137.0290  154.4520 C   0  0  0  0  0  3  0  0  0  0  0  0
  138.8080  138.5250  153.4120 O   0  0  0  0  0  0  0  0  0  0  0  0
  139.8290  138.0510  152.5420 C   0  0  0  0  0  1  0  0  0  0  0  0
  135.6530  135.4480  155.4370 C   0  0  0  0  0  2  0  0  0  0  0  0
  134.5650  134.0390  153.7690 C   0  0  0  0  0  0  0  0  0  0  0  0
  134.2760  133.1980  154.6140 O   0  0  0  0  0  0  0  0  0  0  0  0
  135.2560  135.1930  154.0730 N   0  0  0  0  0  0  0  0  0  0  0  0
  135.4750  135.8400  153.3630 H   0  0  0  0  0  0  0  0  0  0  0  0
  135.4060  134.1900  151.4040 C   0  0  0  0  0  1  0  0  0  0  0  0
  134.2120  133.9070  152.3010 C   0  0  0  0  0  2  0  0  0  0  0  0
  1  2  1  0  0  0  0
  2  3  2  0  0  0  0
  4  5  1  0  0  0  0
  4  3  1  0  0  0  0
  6  4  2  0  0  0  0
  7  6  1  0  0  0  0
  7  1  2  0  0  0  0
  8  6  1  0  0  0  0
  9  8  1  0  0  0  0
 10  1  1  0  0  0  0
 11 13  1  0  0  0  0
 11 12  2  0  0  0  0
 13 10  1  0  0  0  0
 14 13  1  0  0  0  0
 15 16  1  0  0  0  0
 16 11  1  0  0  0  0
M  END
>  <MODEL>
7

>  <REMARK>
 VINA RESULT:    -5.299      9.309     11.591
 INTER + INTRA:          -6.901
 INTER:                  -6.563
 INTRA:                  -0.338
 UNBOUND:                -0.363
  Name = CHEMBL4447574
  6 active torsions:
  status: ('A' for Active; 'I' for Inactive)
    1  A    between atoms: C_1  and  C_2
    2  A    between atoms: C_2  and  C_3
    3  A    between atoms: N_5  and  C_6
    4  A    between atoms: C_6  and  C_7
    5  A    between atoms: C_12  and  O_13
    6  A    between atoms: O_13  and  C_14
                            x       y       z     vdW  Elec       q    Type
                         _______ _______ _______ _____ _____    ______ ____

>  <TORSDO>
F 4

>  <SCORE>
-5.299

>  <RMSD_LB>
9.309

>  <RMSD_UB>
11.591

$$$$
CHEMBL4447574
 OpenBabel10172500363D

 16 16  0  0  0  0  0  0  0  0999 V2000
  144.7380  140.4560  151.9550 C   0  0  0  0  0  0  0  0  0  0  0  0
  145.2060  141.7110  151.5460 C   0  0  0  0  0  3  0  0  0  0  0  0
  146.2400  142.3350  152.2410 C   0  0  0  0  0  3  0  0  0  0  0  0
  146.8050  141.7190  153.3550 C   0  0  0  0  0  0  0  0  0  0  0  0
  147.8010  142.3660  153.9800 F   0  0  0  0  0  0  0  0  0  0  0  0
  146.3470  140.4760  153.7960 C   0  0  0  0  0  0  0  0  0  0  0  0
  145.3070  139.8550  153.0910 C   0  0  0  0  0  3  0  0  0  0  0  0
  146.8050  139.7580  154.8680 O   0  0  0  0  0  0  0  0  0  0  0  0
  148.0780  139.1340  154.7320 C   0  0  0  0  0  1  0  0  0  0  0  0
  143.6440  139.7640  151.1910 C   0  0  0  0  0  2  0  0  0  0  0  0
  142.1480  138.1560  152.2530 C   0  0  0  0  0  0  0  0  0  0  0  0
  142.7650  137.2090  151.7730 O   0  0  0  0  0  0  0  0  0  0  0  0
  142.5000  139.4680  152.0200 N   0  0  0  0  0  0  0  0  0  0  0  0
  141.9730  140.2000  152.4180 H   0  0  0  0  0  0  0  0  0  0  0  0
  141.2880  138.1080  154.6150 C   0  0  0  0  0  1  0  0  0  0  0  0
  140.9310  137.9970  153.1410 C   0  0  0  0  0  2  0  0  0  0  0  0
  1  7  1  0  0  0  0
  2  1  2  0  0  0  0
  2  3  1  0  0  0  0
  3  4  2  0  0  0  0
  4  6  1  0  0  0  0
  4  5  1  0  0  0  0
  6  8  1  0  0  0  0
  7  6  2  0  0  0  0
  9  8  1  0  0  0  0
 10  1  1  0  0  0  0
 10 13  1  0  0  0  0
 11 16  1  0  0  0  0
 12 11  2  0  0  0  0
 13 11  1  0  0  0  0
 13 14  1  0  0  0  0
 16 15  1  0  0  0  0
M  END
>  <MODEL>
8

>  <REMARK>
 VINA RESULT:    -5.297      2.959      4.978
 INTER + INTRA:          -6.899
 INTER:                  -6.531
 INTRA:                  -0.368
 UNBOUND:                -0.363
  Name = CHEMBL4447574
  6 active torsions:
  status: ('A' for Active; 'I' for Inactive)
    1  A    between atoms: C_1  and  C_2
    2  A    between atoms: C_2  and  C_3
    3  A    between atoms: N_5  and  C_6
    4  A    between atoms: C_6  and  C_7
    5  A    between atoms: C_12  and  O_13
    6  A    between atoms: O_13  and  C_14
                            x       y       z     vdW  Elec       q    Type
                         _______ _______ _______ _____ _____    ______ ____

>  <TORSDO>
F 4

>  <SCORE>
-5.297

>  <RMSD_LB>
2.959

>  <RMSD_UB>
4.978

$$$$
CHEMBL4447574
 OpenBabel10172500363D

 16 16  0  0  0  0  0  0  0  0999 V2000
  134.3910  135.2320  152.4120 C   0  0  0  0  0  0  0  0  0  0  0  0
  135.6500  134.6390  152.2480 C   0  0  0  0  0  3  0  0  0  0  0  0
  136.1580  134.4130  150.9710 C   0  0  0  0  0  3  0  0  0  0  0  0
  135.4110  134.7640  149.8480 C   0  0  0  0  0  0  0  0  0  0  0  0
  135.9550  134.5260  148.6450 F   0  0  0  0  0  0  0  0  0  0  0  0
  134.1460  135.3410  149.9810 C   0  0  0  0  0  0  0  0  0  0  0  0
  133.6430  135.5650  151.2700 C   0  0  0  0  0  3  0  0  0  0  0  0
  133.3050  135.7330  148.9740 O   0  0  0  0  0  0  0  0  0  0  0  0
  132.6800  137.0040  149.1130 C   0  0  0  0  0  1  0  0  0  0  0  0
  133.8510  135.5080  153.7880 C   0  0  0  0  0  2  0  0  0  0  0  0
  134.8680  135.1360  155.9730 C   0  0  0  0  0  0  0  0  0  0  0  0
  133.9710  134.3660  156.3010 O   0  0  0  0  0  0  0  0  0  0  0  0
  134.9000  135.7630  154.7460 N   0  0  0  0  0  0  0  0  0  0  0  0
  135.6340  136.3810  154.5240 H   0  0  0  0  0  0  0  0  0  0  0  0
  137.1730  136.1330  156.0970 C   0  0  0  0  0  1  0  0  0  0  0  0
  136.0320  135.4960  156.8740 C   0  0  0  0  0  2  0  0  0  0  0  0
  1 10  1  0  0  0  0
  2  1  1  0  0  0  0
  3  2  2  0  0  0  0
  4  6  2  0  0  0  0
  4  3  1  0  0  0  0
  5  4  1  0  0  0  0
  6  7  1  0  0  0  0
  7  1  2  0  0  0  0
  8  9  1  0  0  0  0
  8  6  1  0  0  0  0
 10 13  1  0  0  0  0
 11 12  2  0  0  0  0
 11 16  1  0  0  0  0
 13 11  1  0  0  0  0
 14 13  1  0  0  0  0
 15 16  1  0  0  0  0
M  END
>  <MODEL>
9

>  <REMARK>
 VINA RESULT:    -5.229     11.942     13.105
 INTER + INTRA:          -6.814
 INTER:                  -6.451
 INTRA:                  -0.363
 UNBOUND:                -0.363
  Name = CHEMBL4447574
  6 active torsions:
  status: ('A' for Active; 'I' for Inactive)
    1  A    between atoms: C_1  and  C_2
    2  A    between atoms: C_2  and  C_3
    3  A    between atoms: N_5  and  C_6
    4  A    between atoms: C_6  and  C_7
    5  A    between atoms: C_12  and  O_13
    6  A    between atoms: O_13  and  C_14
                            x       y       z     vdW  Elec       q    Type
                         _______ _______ _______ _____ _____    ______ ____

>  <TORSDO>
F 4

>  <SCORE>
-5.229

>  <RMSD_LB>
11.942

>  <RMSD_UB>
13.105

$$$$
