CHEMBL463438
 OpenBabel10162523523D

 26 27  0  0  0  0  0  0  0  0999 V2000
  143.4840  140.0270  150.2150 C   0  0  0  0  0  3  0  0  0  0  0  0
  143.9940  139.4700  149.1060 C   0  0  0  0  0  3  0  0  0  0  0  0
  145.0260  140.1510  148.2810 C   0  0  0  0  0  0  0  0  0  0  0  0
  144.8110  140.3770  147.0830 O   0  0  0  0  0  0  0  0  0  0  0  0
  146.3540  140.5560  148.9110 C   0  0  0  0  0  2  0  0  0  0  0  0
  146.4430  141.9670  149.4950 C   0  0  0  0  0  2  0  0  0  0  0  0
  146.8430  142.0720  150.9500 C   0  0  0  0  0  0  0  0  0  0  0  0
  145.9160  142.2880  151.9810 C   0  0  0  0  0  3  0  0  0  0  0  0
  146.2920  142.2190  153.3130 C   0  0  0  0  0  3  0  0  0  0  0  0
  147.6090  141.9190  153.6290 C   0  0  0  0  0  0  0  0  0  0  0  0
  148.5670  141.7780  152.6370 C   0  0  0  0  0  3  0  0  0  0  0  0
  148.1930  141.8750  151.2980 C   0  0  0  0  0  3  0  0  0  0  0  0
  147.9960  141.8170  154.9310 O   0  0  0  0  0  0  0  0  0  0  0  0
  147.3990  142.0460  155.6160 H   0  0  0  0  0  0  0  0  0  0  0  0
  142.3830  139.3750  151.0000 C   0  0  0  0  0  2  0  0  0  0  0  0
  142.8220  138.1680  151.8520 C   0  0  0  0  0  2  0  0  0  0  0  0
  146.1590  138.2670  153.7090 C   0  0  0  0  0  0  0  0  0  0  0  0
  145.1610  137.9370  152.7940 C   0  0  0  0  0  3  0  0  0  0  0  0
  143.8510  138.4150  152.9290 C   0  0  0  0  0  0  0  0  0  0  0  0
  143.5570  139.2320  154.0300 C   0  0  0  0  0  3  0  0  0  0  0  0
  144.5230  139.4830  155.0090 C   0  0  0  0  0  3  0  0  0  0  0  0
  145.8150  138.9830  154.8550 C   0  0  0  0  0  0  0  0  0  0  0  0
  147.8150  137.4780  152.2240 C   0  0  0  0  0  1  0  0  0  0  0  0
  147.4750  137.9090  153.5400 O   0  0  0  0  0  0  0  0  0  0  0  0
  146.7520  139.1940  155.8280 O   0  0  0  0  0  0  0  0  0  0  0  0
  147.2760  138.4810  156.1360 H   0  0  0  0  0  0  0  0  0  0  0  0
  1 15  1  0  0  0  0
  2  1  2  0  0  0  0
  3  5  1  0  0  0  0
  3  2  1  0  0  0  0
  4  3  2  0  0  0  0
  5  6  1  0  0  0  0
  6  7  1  0  0  0  0
  7 12  2  0  0  0  0
  7  8  1  0  0  0  0
  8  9  2  0  0  0  0
  9 10  1  0  0  0  0
 10 13  1  0  0  0  0
 11 10  2  0  0  0  0
 12 11  1  0  0  0  0
 13 14  1  0  0  0  0
 15 16  1  0  0  0  0
 16 19  1  0  0  0  0
 17 22  1  0  0  0  0
 18 19  1  0  0  0  0
 18 17  2  0  0  0  0
 19 20  2  0  0  0  0
 20 21  1  0  0  0  0
 22 21  2  0  0  0  0
 22 25  1  0  0  0  0
 23 24  1  0  0  0  0
 24 17  1  0  0  0  0
 25 26  1  0  0  0  0
M  END
>  <MODEL>
1

>  <REMARK>
 VINA RESULT:    -7.577      0.000      0.000
 INTER + INTRA:         -13.048
 INTER:                 -10.857
 INTRA:                  -2.191
 UNBOUND:                -1.484
  Name = CHEMBL463438
  11 active torsions:
  status: ('A' for Active; 'I' for Inactive)
    1  A    between atoms: C_1  and  O_2
    2  A    between atoms: O_2  and  C_3
    3  A    between atoms: C_5  and  C_6
    4  A    between atoms: C_6  and  C_7
    5  A    between atoms: C_7  and  C_8
    6  A    between atoms: C_9  and  C_10
    7  A    between atoms: C_10  and  C_12
    8  A    between atoms: C_12  and  C_13
    9  A    between atoms: C_13  and  C_14
   10  A    between atoms: C_17  and  O_18
   11  A    between atoms: C_23  and  O_24
                            x       y       z     vdW  Elec       q    Type
                         _______ _______ _______ _____ _____    ______ ____

>  <TORSDO>
F 10

>  <SCORE>
-7.577

>  <RMSD_LB>
0.000

>  <RMSD_UB>
0.000

$$$$
CHEMBL463438
 OpenBabel10162523523D

 26 27  0  0  0  0  0  0  0  0999 V2000
  144.5660  138.4120  149.3510 C   0  0  0  0  0  3  0  0  0  0  0  0
  144.5080  139.4900  148.5530 C   0  0  0  0  0  3  0  0  0  0  0  0
  145.5410  140.5590  148.5930 C   0  0  0  0  0  0  0  0  0  0  0  0
  146.3930  140.6300  147.6980 O   0  0  0  0  0  0  0  0  0  0  0  0
  145.5550  141.5560  149.7470 C   0  0  0  0  0  2  0  0  0  0  0  0
  146.8770  142.2740  150.0260 C   0  0  0  0  0  2  0  0  0  0  0  0
  147.4890  142.0540  151.3920 C   0  0  0  0  0  0  0  0  0  0  0  0
  148.8750  142.0250  151.6090 C   0  0  0  0  0  3  0  0  0  0  0  0
  149.4020  141.9830  152.8910 C   0  0  0  0  0  3  0  0  0  0  0  0
  148.5390  141.9800  153.9760 C   0  0  0  0  0  0  0  0  0  0  0  0
  147.1650  141.9280  153.7970 C   0  0  0  0  0  3  0  0  0  0  0  0
  146.6370  141.9430  152.5070 C   0  0  0  0  0  3  0  0  0  0  0  0
  149.0330  141.9690  155.2460 O   0  0  0  0  0  0  0  0  0  0  0  0
  148.4700  141.7550  155.9640 H   0  0  0  0  0  0  0  0  0  0  0  0
  143.4800  137.3760  149.3680 C   0  0  0  0  0  2  0  0  0  0  0  0
  143.3180  136.6280  150.7050 C   0  0  0  0  0  2  0  0  0  0  0  0
  142.9840  138.9230  153.7400 C   0  0  0  0  0  0  0  0  0  0  0  0
  143.5260  138.1050  152.7510 C   0  0  0  0  0  3  0  0  0  0  0  0
  142.7140  137.3920  151.8600 C   0  0  0  0  0  0  0  0  0  0  0  0
  141.3240  137.5100  151.9950 C   0  0  0  0  0  3  0  0  0  0  0  0
  140.7690  138.2440  153.0490 C   0  0  0  0  0  3  0  0  0  0  0  0
  141.6030  138.9310  153.9290 C   0  0  0  0  0  0  0  0  0  0  0  0
  145.0130  139.1660  154.9210 C   0  0  0  0  0  1  0  0  0  0  0  0
  143.7530  139.7220  154.5530 O   0  0  0  0  0  0  0  0  0  0  0  0
  141.0670  139.6200  154.9830 O   0  0  0  0  0  0  0  0  0  0  0  0
  140.2170  139.3950  155.3050 H   0  0  0  0  0  0  0  0  0  0  0  0
  1 15  1  0  0  0  0
  2  3  1  0  0  0  0
  2  1  2  0  0  0  0
  3  5  1  0  0  0  0
  4  3  2  0  0  0  0
  5  6  1  0  0  0  0
  6  7  1  0  0  0  0
  7  8  2  0  0  0  0
  7 12  1  0  0  0  0
  8  9  1  0  0  0  0
  9 10  2  0  0  0  0
 10 13  1  0  0  0  0
 11 10  1  0  0  0  0
 12 11  2  0  0  0  0
 13 14  1  0  0  0  0
 15 16  1  0  0  0  0
 16 19  1  0  0  0  0
 17 22  1  0  0  0  0
 17 24  1  0  0  0  0
 18 17  2  0  0  0  0
 19 20  2  0  0  0  0
 19 18  1  0  0  0  0
 20 21  1  0  0  0  0
 21 22  2  0  0  0  0
 22 25  1  0  0  0  0
 24 23  1  0  0  0  0
 25 26  1  0  0  0  0
M  END
>  <MODEL>
2

>  <REMARK>
 VINA RESULT:    -7.144      1.815      2.802
 INTER + INTRA:         -12.387
 INTER:                 -11.330
 INTRA:                  -1.057
 UNBOUND:                -1.484
  Name = CHEMBL463438
  11 active torsions:
  status: ('A' for Active; 'I' for Inactive)
    1  A    between atoms: C_1  and  O_2
    2  A    between atoms: O_2  and  C_3
    3  A    between atoms: C_5  and  C_6
    4  A    between atoms: C_6  and  C_7
    5  A    between atoms: C_7  and  C_8
    6  A    between atoms: C_9  and  C_10
    7  A    between atoms: C_10  and  C_12
    8  A    between atoms: C_12  and  C_13
    9  A    between atoms: C_13  and  C_14
   10  A    between atoms: C_17  and  O_18
   11  A    between atoms: C_23  and  O_24
                            x       y       z     vdW  Elec       q    Type
                         _______ _______ _______ _____ _____    ______ ____

>  <TORSDO>
F 10

>  <SCORE>
-7.144

>  <RMSD_LB>
1.815

>  <RMSD_UB>
2.802

$$$$
CHEMBL463438
 OpenBabel10162523523D

 26 27  0  0  0  0  0  0  0  0999 V2000
  147.8880  141.7450  152.3900 C   0  0  0  0  0  3  0  0  0  0  0  0
  146.7360  142.2520  151.9240 C   0  0  0  0  0  3  0  0  0  0  0  0
  146.3920  142.2350  150.4780 C   0  0  0  0  0  0  0  0  0  0  0  0
  146.9680  143.0020  149.6950 O   0  0  0  0  0  0  0  0  0  0  0  0
  145.3170  141.2820  149.9660 C   0  0  0  0  0  2  0  0  0  0  0  0
  144.7290  140.2930  150.9750 C   0  0  0  0  0  2  0  0  0  0  0  0
  145.2300  138.8680  150.8940 C   0  0  0  0  0  0  0  0  0  0  0  0
  144.3700  137.7590  150.8810 C   0  0  0  0  0  3  0  0  0  0  0  0
  144.8490  136.4800  150.6440 C   0  0  0  0  0  3  0  0  0  0  0  0
  146.2030  136.2980  150.4050 C   0  0  0  0  0  0  0  0  0  0  0  0
  147.0920  137.3600  150.4890 C   0  0  0  0  0  3  0  0  0  0  0  0
  146.6120  138.6410  150.7540 C   0  0  0  0  0  3  0  0  0  0  0  0
  146.6930  135.0550  150.1410 O   0  0  0  0  0  0  0  0  0  0  0  0
  146.5080  134.6450  149.3190 H   0  0  0  0  0  0  0  0  0  0  0  0
  148.2700  141.8380  153.8380 C   0  0  0  0  0  2  0  0  0  0  0  0
  148.5650  140.4870  154.5190 C   0  0  0  0  0  2  0  0  0  0  0  0
  145.1040  138.8740  154.4330 C   0  0  0  0  0  0  0  0  0  0  0  0
  146.1280  139.8050  154.5930 C   0  0  0  0  0  3  0  0  0  0  0  0
  147.4770  139.4410  154.4890 C   0  0  0  0  0  0  0  0  0  0  0  0
  147.7790  138.0970  154.2300 C   0  0  0  0  0  3  0  0  0  0  0  0
  146.7640  137.1360  154.1710 C   0  0  0  0  0  3  0  0  0  0  0  0
  145.4320  137.5260  154.2940 C   0  0  0  0  0  0  0  0  0  0  0  0
  143.2830  139.7740  155.6360 C   0  0  0  0  0  1  0  0  0  0  0  0
  143.7740  139.2220  154.4170 O   0  0  0  0  0  0  0  0  0  0  0  0
  144.4380  136.5860  154.2750 O   0  0  0  0  0  0  0  0  0  0  0  0
  144.6040  135.7370  153.9170 H   0  0  0  0  0  0  0  0  0  0  0  0
  1 15  1  0  0  0  0
  2  1  2  0  0  0  0
  3  2  1  0  0  0  0
  4  3  2  0  0  0  0
  5  3  1  0  0  0  0
  5  6  1  0  0  0  0
  7  6  1  0  0  0  0
  8  7  1  0  0  0  0
  9  8  2  0  0  0  0
 10 11  2  0  0  0  0
 10  9  1  0  0  0  0
 11 12  1  0  0  0  0
 12  7  2  0  0  0  0
 13 10  1  0  0  0  0
 14 13  1  0  0  0  0
 15 16  1  0  0  0  0
 17 18  1  0  0  0  0
 19 16  1  0  0  0  0
 19 18  2  0  0  0  0
 20 19  1  0  0  0  0
 21 20  2  0  0  0  0
 21 22  1  0  0  0  0
 22 17  2  0  0  0  0
 24 17  1  0  0  0  0
 24 23  1  0  0  0  0
 25 22  1  0  0  0  0
 26 25  1  0  0  0  0
M  END
>  <MODEL>
3

>  <REMARK>
 VINA RESULT:    -7.143      2.185      4.766
 INTER + INTRA:         -12.385
 INTER:                  -9.747
 INTRA:                  -2.638
 UNBOUND:                -1.484
  Name = CHEMBL463438
  11 active torsions:
  status: ('A' for Active; 'I' for Inactive)
    1  A    between atoms: C_1  and  O_2
    2  A    between atoms: O_2  and  C_3
    3  A    between atoms: C_5  and  C_6
    4  A    between atoms: C_6  and  C_7
    5  A    between atoms: C_7  and  C_8
    6  A    between atoms: C_9  and  C_10
    7  A    between atoms: C_10  and  C_12
    8  A    between atoms: C_12  and  C_13
    9  A    between atoms: C_13  and  C_14
   10  A    between atoms: C_17  and  O_18
   11  A    between atoms: C_23  and  O_24
                            x       y       z     vdW  Elec       q    Type
                         _______ _______ _______ _____ _____    ______ ____

>  <TORSDO>
F 10

>  <SCORE>
-7.143

>  <RMSD_LB>
2.185

>  <RMSD_UB>
4.766

$$$$
CHEMBL463438
 OpenBabel10162523523D

 26 27  0  0  0  0  0  0  0  0999 V2000
  145.3340  138.8540  149.3530 C   0  0  0  0  0  3  0  0  0  0  0  0
  146.3960  139.5600  148.9380 C   0  0  0  0  0  3  0  0  0  0  0  0
  146.2710  140.9480  148.4210 C   0  0  0  0  0  0  0  0  0  0  0  0
  146.2680  141.1570  147.2000 O   0  0  0  0  0  0  0  0  0  0  0  0
  146.1620  142.1140  149.3980 C   0  0  0  0  0  2  0  0  0  0  0  0
  147.4720  142.6970  149.9300 C   0  0  0  0  0  2  0  0  0  0  0  0
  147.8030  142.4050  151.3770 C   0  0  0  0  0  0  0  0  0  0  0  0
  146.8210  142.1570  152.3480 C   0  0  0  0  0  3  0  0  0  0  0  0
  147.1600  141.7360  153.6240 C   0  0  0  0  0  3  0  0  0  0  0  0
  148.4970  141.5470  153.9400 C   0  0  0  0  0  0  0  0  0  0  0  0
  149.4970  141.8590  153.0320 C   0  0  0  0  0  3  0  0  0  0  0  0
  149.1550  142.3090  151.7570 C   0  0  0  0  0  3  0  0  0  0  0  0
  148.8540  141.1060  155.1780 O   0  0  0  0  0  0  0  0  0  0  0  0
  148.2820  140.5350  155.6540 H   0  0  0  0  0  0  0  0  0  0  0  0
  145.4510  137.4250  149.7960 C   0  0  0  0  0  2  0  0  0  0  0  0
  146.5370  137.1620  150.8570 C   0  0  0  0  0  2  0  0  0  0  0  0
  144.8220  138.7570  153.8750 C   0  0  0  0  0  0  0  0  0  0  0  0
  145.0980  138.3430  152.5730 C   0  0  0  0  0  3  0  0  0  0  0  0
  146.3150  137.7350  152.2360 C   0  0  0  0  0  0  0  0  0  0  0  0
  147.2680  137.5630  153.2490 C   0  0  0  0  0  3  0  0  0  0  0  0
  147.0440  138.0680  154.5340 C   0  0  0  0  0  3  0  0  0  0  0  0
  145.8300  138.6820  154.8360 C   0  0  0  0  0  0  0  0  0  0  0  0
  142.5430  138.2920  154.2750 C   0  0  0  0  0  1  0  0  0  0  0  0
  143.5980  139.2510  154.2570 O   0  0  0  0  0  0  0  0  0  0  0  0
  145.6200  139.2110  156.0790 O   0  0  0  0  0  0  0  0  0  0  0  0
  145.9780  138.7880  156.8340 H   0  0  0  0  0  0  0  0  0  0  0  0
  1 15  1  0  0  0  0
  2  1  2  0  0  0  0
  3  2  1  0  0  0  0
  3  5  1  0  0  0  0
  4  3  2  0  0  0  0
  5  6  1  0  0  0  0
  6  7  1  0  0  0  0
  7 12  2  0  0  0  0
  7  8  1  0  0  0  0
  8  9  2  0  0  0  0
  9 10  1  0  0  0  0
 10 13  1  0  0  0  0
 11 10  2  0  0  0  0
 12 11  1  0  0  0  0
 13 14  1  0  0  0  0
 15 16  1  0  0  0  0
 16 19  1  0  0  0  0
 17 24  1  0  0  0  0
 17 22  1  0  0  0  0
 18 17  2  0  0  0  0
 19 18  1  0  0  0  0
 19 20  2  0  0  0  0
 20 21  1  0  0  0  0
 21 22  2  0  0  0  0
 22 25  1  0  0  0  0
 24 23  1  0  0  0  0
 25 26  1  0  0  0  0
M  END
>  <MODEL>
4

>  <REMARK>
 VINA RESULT:    -7.048      1.550      2.464
 INTER + INTRA:         -12.240
 INTER:                 -10.614
 INTRA:                  -1.626
 UNBOUND:                -1.484
  Name = CHEMBL463438
  11 active torsions:
  status: ('A' for Active; 'I' for Inactive)
    1  A    between atoms: C_1  and  O_2
    2  A    between atoms: O_2  and  C_3
    3  A    between atoms: C_5  and  C_6
    4  A    between atoms: C_6  and  C_7
    5  A    between atoms: C_7  and  C_8
    6  A    between atoms: C_9  and  C_10
    7  A    between atoms: C_10  and  C_12
    8  A    between atoms: C_12  and  C_13
    9  A    between atoms: C_13  and  C_14
   10  A    between atoms: C_17  and  O_18
   11  A    between atoms: C_23  and  O_24
                            x       y       z     vdW  Elec       q    Type
                         _______ _______ _______ _____ _____    ______ ____

>  <TORSDO>
F 10

>  <SCORE>
-7.048

>  <RMSD_LB>
1.550

>  <RMSD_UB>
2.464

$$$$
CHEMBL463438
 OpenBabel10162523523D

 26 27  0  0  0  0  0  0  0  0999 V2000
  144.5370  138.3330  149.4410 C   0  0  0  0  0  3  0  0  0  0  0  0
  144.4750  139.3820  148.6070 C   0  0  0  0  0  3  0  0  0  0  0  0
  145.4840  140.4740  148.6320 C   0  0  0  0  0  0  0  0  0  0  0  0
  146.3160  140.5690  147.7210 O   0  0  0  0  0  0  0  0  0  0  0  0
  145.5010  141.4630  149.7920 C   0  0  0  0  0  2  0  0  0  0  0  0
  146.8020  142.2340  150.0270 C   0  0  0  0  0  2  0  0  0  0  0  0
  147.3580  142.2060  151.4340 C   0  0  0  0  0  0  0  0  0  0  0  0
  146.5430  142.1950  152.5750 C   0  0  0  0  0  3  0  0  0  0  0  0
  147.0770  142.0070  153.8400 C   0  0  0  0  0  3  0  0  0  0  0  0
  148.4440  141.8180  153.9740 C   0  0  0  0  0  0  0  0  0  0  0  0
  149.2890  141.9020  152.8780 C   0  0  0  0  0  3  0  0  0  0  0  0
  148.7520  142.1180  151.6090 C   0  0  0  0  0  3  0  0  0  0  0  0
  148.9900  141.6020  155.2040 O   0  0  0  0  0  0  0  0  0  0  0  0
  149.9210  141.6130  155.3110 H   0  0  0  0  0  0  0  0  0  0  0  0
  143.4720  137.2750  149.4700 C   0  0  0  0  0  2  0  0  0  0  0  0
  143.1890  136.6780  150.8620 C   0  0  0  0  0  2  0  0  0  0  0  0
  140.0080  138.0200  152.4950 C   0  0  0  0  0  0  0  0  0  0  0  0
  140.8810  137.4260  151.5870 C   0  0  0  0  0  3  0  0  0  0  0  0
  142.2700  137.4510  151.7770 C   0  0  0  0  0  0  0  0  0  0  0  0
  142.7690  138.1080  152.9100 C   0  0  0  0  0  3  0  0  0  0  0  0
  141.9090  138.7960  153.7720 C   0  0  0  0  0  3  0  0  0  0  0  0
  140.5330  138.7670  153.5490 C   0  0  0  0  0  0  0  0  0  0  0  0
  138.1240  138.0440  151.0740 C   0  0  0  0  0  1  0  0  0  0  0  0
  138.6410  137.9130  152.3950 O   0  0  0  0  0  0  0  0  0  0  0  0
  139.6920  139.4690  154.3670 O   0  0  0  0  0  0  0  0  0  0  0  0
  140.0170  140.1950  154.8610 H   0  0  0  0  0  0  0  0  0  0  0  0
  1 15  1  0  0  0  0
  2  3  1  0  0  0  0
  2  1  2  0  0  0  0
  3  5  1  0  0  0  0
  4  3  2  0  0  0  0
  5  6  1  0  0  0  0
  6  7  1  0  0  0  0
  7 12  2  0  0  0  0
  7  8  1  0  0  0  0
  8  9  2  0  0  0  0
  9 10  1  0  0  0  0
 10 13  1  0  0  0  0
 11 10  2  0  0  0  0
 12 11  1  0  0  0  0
 13 14  1  0  0  0  0
 15 16  1  0  0  0  0
 16 19  1  0  0  0  0
 17 22  1  0  0  0  0
 18 19  1  0  0  0  0
 18 17  2  0  0  0  0
 19 20  2  0  0  0  0
 20 21  1  0  0  0  0
 22 21  2  0  0  0  0
 22 25  1  0  0  0  0
 23 24  1  0  0  0  0
 24 17  1  0  0  0  0
 25 26  1  0  0  0  0
M  END
>  <MODEL>
5

>  <REMARK>
 VINA RESULT:    -6.965      2.818      3.874
 INTER + INTRA:         -12.113
 INTER:                 -11.244
 INTRA:                  -0.870
 UNBOUND:                -1.484
  Name = CHEMBL463438
  11 active torsions:
  status: ('A' for Active; 'I' for Inactive)
    1  A    between atoms: C_1  and  O_2
    2  A    between atoms: O_2  and  C_3
    3  A    between atoms: C_5  and  C_6
    4  A    between atoms: C_6  and  C_7
    5  A    between atoms: C_7  and  C_8
    6  A    between atoms: C_9  and  C_10
    7  A    between atoms: C_10  and  C_12
    8  A    between atoms: C_12  and  C_13
    9  A    between atoms: C_13  and  C_14
   10  A    between atoms: C_17  and  O_18
   11  A    between atoms: C_23  and  O_24
                            x       y       z     vdW  Elec       q    Type
                         _______ _______ _______ _____ _____    ______ ____

>  <TORSDO>
F 10

>  <SCORE>
-6.965

>  <RMSD_LB>
2.818

>  <RMSD_UB>
3.874

$$$$
CHEMBL463438
 OpenBabel10162523523D

 26 27  0  0  0  0  0  0  0  0999 V2000
  144.2050  138.0460  149.8060 C   0  0  0  0  0  3  0  0  0  0  0  0
  144.0890  139.0810  148.9590 C   0  0  0  0  0  3  0  0  0  0  0  0
  145.1410  140.1260  148.8380 C   0  0  0  0  0  0  0  0  0  0  0  0
  145.8630  140.1630  147.8330 O   0  0  0  0  0  0  0  0  0  0  0  0
  145.3360  141.1380  149.9610 C   0  0  0  0  0  2  0  0  0  0  0  0
  146.7010  141.8260  150.0450 C   0  0  0  0  0  2  0  0  0  0  0  0
  147.2970  141.9770  151.4270 C   0  0  0  0  0  0  0  0  0  0  0  0
  146.5160  142.0310  152.5910 C   0  0  0  0  0  3  0  0  0  0  0  0
  147.0970  142.0080  153.8500 C   0  0  0  0  0  3  0  0  0  0  0  0
  148.4770  141.9190  153.9550 C   0  0  0  0  0  0  0  0  0  0  0  0
  149.2830  141.9430  152.8270 C   0  0  0  0  0  3  0  0  0  0  0  0
  148.6980  141.9940  151.5630 C   0  0  0  0  0  3  0  0  0  0  0  0
  149.0700  141.8640  155.1800 O   0  0  0  0  0  0  0  0  0  0  0  0
  150.0010  141.9450  155.2530 H   0  0  0  0  0  0  0  0  0  0  0  0
  143.1070  137.0400  149.9870 C   0  0  0  0  0  2  0  0  0  0  0  0
  142.0780  137.3920  151.0780 C   0  0  0  0  0  2  0  0  0  0  0  0
  138.4520  138.2850  150.2730 C   0  0  0  0  0  0  0  0  0  0  0  0
  139.6110  137.5560  150.5280 C   0  0  0  0  0  3  0  0  0  0  0  0
  140.8600  138.1790  150.6570 C   0  0  0  0  0  0  0  0  0  0  0  0
  140.9200  139.5720  150.5060 C   0  0  0  0  0  3  0  0  0  0  0  0
  139.7820  140.3000  150.1470 C   0  0  0  0  0  3  0  0  0  0  0  0
  138.5560  139.6510  150.0110 C   0  0  0  0  0  0  0  0  0  0  0  0
  136.9600  136.8280  149.1670 C   0  0  0  0  0  1  0  0  0  0  0  0
  137.2010  137.7160  150.2560 O   0  0  0  0  0  0  0  0  0  0  0  0
  137.4480  140.3520  149.6240 O   0  0  0  0  0  0  0  0  0  0  0  0
  136.6000  140.0890  149.9210 H   0  0  0  0  0  0  0  0  0  0  0  0
  1 15  1  0  0  0  0
  2  1  2  0  0  0  0
  3  2  1  0  0  0  0
  3  5  1  0  0  0  0
  4  3  2  0  0  0  0
  5  6  1  0  0  0  0
  6  7  1  0  0  0  0
  7 12  2  0  0  0  0
  7  8  1  0  0  0  0
  8  9  2  0  0  0  0
  9 10  1  0  0  0  0
 10 13  1  0  0  0  0
 11 10  2  0  0  0  0
 12 11  1  0  0  0  0
 13 14  1  0  0  0  0
 15 16  1  0  0  0  0
 17 18  1  0  0  0  0
 18 19  2  0  0  0  0
 19 16  1  0  0  0  0
 20 19  1  0  0  0  0
 21 20  2  0  0  0  0
 22 21  1  0  0  0  0
 22 17  2  0  0  0  0
 23 24  1  0  0  0  0
 24 17  1  0  0  0  0
 25 26  1  0  0  0  0
 25 22  1  0  0  0  0
M  END
>  <MODEL>
6

>  <REMARK>
 VINA RESULT:    -6.491      3.240      5.238
 INTER + INTRA:         -11.391
 INTER:                 -10.559
 INTRA:                  -0.832
 UNBOUND:                -1.484
  Name = CHEMBL463438
  11 active torsions:
  status: ('A' for Active; 'I' for Inactive)
    1  A    between atoms: C_1  and  O_2
    2  A    between atoms: O_2  and  C_3
    3  A    between atoms: C_5  and  C_6
    4  A    between atoms: C_6  and  C_7
    5  A    between atoms: C_7  and  C_8
    6  A    between atoms: C_9  and  C_10
    7  A    between atoms: C_10  and  C_12
    8  A    between atoms: C_12  and  C_13
    9  A    between atoms: C_13  and  C_14
   10  A    between atoms: C_17  and  O_18
   11  A    between atoms: C_23  and  O_24
                            x       y       z     vdW  Elec       q    Type
                         _______ _______ _______ _____ _____    ______ ____

>  <TORSDO>
F 10

>  <SCORE>
-6.491

>  <RMSD_LB>
3.240

>  <RMSD_UB>
5.238

$$$$
CHEMBL463438
 OpenBabel10162523523D

 26 27  0  0  0  0  0  0  0  0999 V2000
  146.7600  138.8550  147.8830 C   0  0  0  0  0  3  0  0  0  0  0  0
  145.7120  139.1170  148.6800 C   0  0  0  0  0  3  0  0  0  0  0  0
  145.4970  140.4560  149.2890 C   0  0  0  0  0  0  0  0  0  0  0  0
  144.4970  140.6650  149.9880 O   0  0  0  0  0  0  0  0  0  0  0  0
  146.5030  141.5740  149.0360 C   0  0  0  0  0  2  0  0  0  0  0  0
  146.6140  142.6620  150.1070 C   0  0  0  0  0  2  0  0  0  0  0  0
  147.2530  142.2570  151.4170 C   0  0  0  0  0  0  0  0  0  0  0  0
  148.6290  142.0240  151.5530 C   0  0  0  0  0  3  0  0  0  0  0  0
  149.2040  141.8130  152.7960 C   0  0  0  0  0  3  0  0  0  0  0  0
  148.4010  141.8430  153.9260 C   0  0  0  0  0  0  0  0  0  0  0  0
  147.0260  141.9910  153.8220 C   0  0  0  0  0  3  0  0  0  0  0  0
  146.4460  142.1770  152.5680 C   0  0  0  0  0  3  0  0  0  0  0  0
  148.9470  141.6680  155.1620 O   0  0  0  0  0  0  0  0  0  0  0  0
  149.2780  140.8270  155.4120 H   0  0  0  0  0  0  0  0  0  0  0  0
  147.0200  137.4820  147.3370 C   0  0  0  0  0  2  0  0  0  0  0  0
  147.8180  136.5520  148.2720 C   0  0  0  0  0  2  0  0  0  0  0  0
  151.0870  136.4080  146.3010 C   0  0  0  0  0  0  0  0  0  0  0  0
  149.7640  136.6630  146.6550 C   0  0  0  0  0  3  0  0  0  0  0  0
  149.2040  136.1460  147.8310 C   0  0  0  0  0  0  0  0  0  0  0  0
  150.0110  135.3430  148.6490 C   0  0  0  0  0  3  0  0  0  0  0  0
  151.3060  134.9950  148.2510 C   0  0  0  0  0  3  0  0  0  0  0  0
  151.8310  135.5120  147.0680 C   0  0  0  0  0  0  0  0  0  0  0  0
  151.2030  136.5640  143.9490 C   0  0  0  0  0  1  0  0  0  0  0  0
  151.6950  136.9930  145.2160 O   0  0  0  0  0  0  0  0  0  0  0  0
  153.0830  135.1450  146.6560 O   0  0  0  0  0  0  0  0  0  0  0  0
  153.2340  134.9250  145.7590 H   0  0  0  0  0  0  0  0  0  0  0  0
  1  2  2  0  0  0  0
  2  3  1  0  0  0  0
  3  4  2  0  0  0  0
  5  3  1  0  0  0  0
  5  6  1  0  0  0  0
  6  7  1  0  0  0  0
  7  8  2  0  0  0  0
  7 12  1  0  0  0  0
  8  9  1  0  0  0  0
  9 10  2  0  0  0  0
 10 13  1  0  0  0  0
 11 10  1  0  0  0  0
 12 11  2  0  0  0  0
 13 14  1  0  0  0  0
 15  1  1  0  0  0  0
 15 16  1  0  0  0  0
 17 18  2  0  0  0  0
 17 22  1  0  0  0  0
 18 19  1  0  0  0  0
 19 16  1  0  0  0  0
 19 20  2  0  0  0  0
 21 20  1  0  0  0  0
 22 21  2  0  0  0  0
 23 24  1  0  0  0  0
 24 17  1  0  0  0  0
 25 22  1  0  0  0  0
 26 25  1  0  0  0  0
M  END
>  <MODEL>
7

>  <REMARK>
 VINA RESULT:    -6.480      4.406      6.316
 INTER + INTRA:         -11.373
 INTER:                 -10.527
 INTRA:                  -0.846
 UNBOUND:                -1.484
  Name = CHEMBL463438
  11 active torsions:
  status: ('A' for Active; 'I' for Inactive)
    1  A    between atoms: C_1  and  O_2
    2  A    between atoms: O_2  and  C_3
    3  A    between atoms: C_5  and  C_6
    4  A    between atoms: C_6  and  C_7
    5  A    between atoms: C_7  and  C_8
    6  A    between atoms: C_9  and  C_10
    7  A    between atoms: C_10  and  C_12
    8  A    between atoms: C_12  and  C_13
    9  A    between atoms: C_13  and  C_14
   10  A    between atoms: C_17  and  O_18
   11  A    between atoms: C_23  and  O_24
                            x       y       z     vdW  Elec       q    Type
                         _______ _______ _______ _____ _____    ______ ____

>  <TORSDO>
F 10

>  <SCORE>
-6.480

>  <RMSD_LB>
4.406

>  <RMSD_UB>
6.316

$$$$
CHEMBL463438
 OpenBabel10162523523D

 26 27  0  0  0  0  0  0  0  0999 V2000
  144.9360  136.4500  149.8470 C   0  0  0  0  0  3  0  0  0  0  0  0
  144.1290  135.4790  149.3920 C   0  0  0  0  0  3  0  0  0  0  0  0
  142.9010  135.7750  148.6080 C   0  0  0  0  0  0  0  0  0  0  0  0
  142.9620  135.8750  147.3760 O   0  0  0  0  0  0  0  0  0  0  0  0
  141.5710  135.9690  149.3280 C   0  0  0  0  0  2  0  0  0  0  0  0
  141.1490  137.4090  149.6290 C   0  0  0  0  0  2  0  0  0  0  0  0
  141.8500  138.0910  150.7820 C   0  0  0  0  0  0  0  0  0  0  0  0
  141.9520  137.5170  152.0580 C   0  0  0  0  0  3  0  0  0  0  0  0
  142.7370  138.0920  153.0460 C   0  0  0  0  0  3  0  0  0  0  0  0
  143.4410  139.2520  152.7600 C   0  0  0  0  0  0  0  0  0  0  0  0
  143.3010  139.8890  151.5360 C   0  0  0  0  0  3  0  0  0  0  0  0
  142.4900  139.3240  150.5530 C   0  0  0  0  0  3  0  0  0  0  0  0
  144.2410  139.8200  153.7040 O   0  0  0  0  0  0  0  0  0  0  0  0
  144.4420  140.7340  153.6590 H   0  0  0  0  0  0  0  0  0  0  0  0
  146.1300  136.1540  150.7080 C   0  0  0  0  0  2  0  0  0  0  0  0
  145.8790  136.2650  152.2240 C   0  0  0  0  0  2  0  0  0  0  0  0
  147.7750  139.4910  152.9940 C   0  0  0  0  0  0  0  0  0  0  0  0
  147.1900  138.4300  152.3050 C   0  0  0  0  0  3  0  0  0  0  0  0
  146.6370  137.3320  152.9780 C   0  0  0  0  0  0  0  0  0  0  0  0
  146.7000  137.3160  154.3780 C   0  0  0  0  0  3  0  0  0  0  0  0
  147.3760  138.3240  155.0730 C   0  0  0  0  0  3  0  0  0  0  0  0
  147.9290  139.3970  154.3760 C   0  0  0  0  0  0  0  0  0  0  0  0
  147.1930  141.4720  151.8500 C   0  0  0  0  0  1  0  0  0  0  0  0
  148.2210  140.6310  152.3690 O   0  0  0  0  0  0  0  0  0  0  0  0
  148.6240  140.3640  155.0480 O   0  0  0  0  0  0  0  0  0  0  0  0
  149.5210  140.5300  154.8340 H   0  0  0  0  0  0  0  0  0  0  0  0
  1 15  1  0  0  0  0
  2  1  2  0  0  0  0
  3  5  1  0  0  0  0
  3  2  1  0  0  0  0
  4  3  2  0  0  0  0
  5  6  1  0  0  0  0
  6  7  1  0  0  0  0
  7  8  1  0  0  0  0
  8  9  2  0  0  0  0
 10  9  1  0  0  0  0
 10 13  1  0  0  0  0
 11 10  2  0  0  0  0
 12  7  2  0  0  0  0
 12 11  1  0  0  0  0
 14 13  1  0  0  0  0
 15 16  1  0  0  0  0
 16 19  1  0  0  0  0
 17 22  1  0  0  0  0
 18 19  1  0  0  0  0
 18 17  2  0  0  0  0
 19 20  2  0  0  0  0
 20 21  1  0  0  0  0
 22 25  1  0  0  0  0
 22 21  2  0  0  0  0
 23 24  1  0  0  0  0
 24 17  1  0  0  0  0
 26 25  1  0  0  0  0
M  END
>  <MODEL>
8

>  <REMARK>
 VINA RESULT:    -6.468      2.433      4.622
 INTER + INTRA:         -11.356
 INTER:                  -9.002
 INTRA:                  -2.354
 UNBOUND:                -1.484
  Name = CHEMBL463438
  11 active torsions:
  status: ('A' for Active; 'I' for Inactive)
    1  A    between atoms: C_1  and  O_2
    2  A    between atoms: O_2  and  C_3
    3  A    between atoms: C_5  and  C_6
    4  A    between atoms: C_6  and  C_7
    5  A    between atoms: C_7  and  C_8
    6  A    between atoms: C_9  and  C_10
    7  A    between atoms: C_10  and  C_12
    8  A    between atoms: C_12  and  C_13
    9  A    between atoms: C_13  and  C_14
   10  A    between atoms: C_17  and  O_18
   11  A    between atoms: C_23  and  O_24
                            x       y       z     vdW  Elec       q    Type
                         _______ _______ _______ _____ _____    ______ ____

>  <TORSDO>
F 10

>  <SCORE>
-6.468

>  <RMSD_LB>
2.433

>  <RMSD_UB>
4.622

$$$$
CHEMBL463438
 OpenBabel10162523523D

 26 27  0  0  0  0  0  0  0  0999 V2000
  140.6600  137.3970  151.9110 C   0  0  0  0  0  3  0  0  0  0  0  0
  140.6330  138.3170  152.8870 C   0  0  0  0  0  3  0  0  0  0  0  0
  141.2980  138.0980  154.1990 C   0  0  0  0  0  0  0  0  0  0  0  0
  142.5160  137.8810  154.2470 O   0  0  0  0  0  0  0  0  0  0  0  0
  140.4720  138.1250  155.4810 C   0  0  0  0  0  2  0  0  0  0  0  0
  138.9510  138.0660  155.3270 C   0  0  0  0  0  2  0  0  0  0  0  0
  138.1870  137.3750  156.4340 C   0  0  0  0  0  0  0  0  0  0  0  0
  138.1500  137.8600  157.7510 C   0  0  0  0  0  3  0  0  0  0  0  0
  137.3130  137.2970  158.7020 C   0  0  0  0  0  3  0  0  0  0  0  0
  136.4910  136.2410  158.3380 C   0  0  0  0  0  0  0  0  0  0  0  0
  136.5590  135.6860  157.0690 C   0  0  0  0  0  3  0  0  0  0  0  0
  137.4210  136.2360  156.1210 C   0  0  0  0  0  3  0  0  0  0  0  0
  135.6390  135.6900  159.2470 O   0  0  0  0  0  0  0  0  0  0  0  0
  135.8050  134.8300  159.5810 H   0  0  0  0  0  0  0  0  0  0  0  0
  139.9190  137.5850  150.6190 C   0  0  0  0  0  2  0  0  0  0  0  0
  138.4630  138.0640  150.7710 C   0  0  0  0  0  2  0  0  0  0  0  0
  136.0180  135.1470  150.4430 C   0  0  0  0  0  0  0  0  0  0  0  0
  136.8770  136.1980  150.1270 C   0  0  0  0  0  3  0  0  0  0  0  0
  137.4220  137.0260  151.1180 C   0  0  0  0  0  0  0  0  0  0  0  0
  137.0690  136.7790  152.4520 C   0  0  0  0  0  3  0  0  0  0  0  0
  136.1280  135.7940  152.7700 C   0  0  0  0  0  3  0  0  0  0  0  0
  135.5910  134.9960  151.7620 C   0  0  0  0  0  0  0  0  0  0  0  0
  135.3060  134.8050  148.2190 C   0  0  0  0  0  1  0  0  0  0  0  0
  135.5600  134.2500  149.5070 O   0  0  0  0  0  0  0  0  0  0  0  0
  134.6430  134.0570  152.0630 O   0  0  0  0  0  0  0  0  0  0  0  0
  134.5890  133.7080  152.9300 H   0  0  0  0  0  0  0  0  0  0  0  0
  1  2  2  0  0  0  0
  2  3  1  0  0  0  0
  3  4  2  0  0  0  0
  3  5  1  0  0  0  0
  6  5  1  0  0  0  0
  6  7  1  0  0  0  0
  7  8  1  0  0  0  0
  8  9  2  0  0  0  0
 10  9  1  0  0  0  0
 10 13  1  0  0  0  0
 11 10  2  0  0  0  0
 12  7  2  0  0  0  0
 12 11  1  0  0  0  0
 13 14  1  0  0  0  0
 15 16  1  0  0  0  0
 15  1  1  0  0  0  0
 16 19  1  0  0  0  0
 17 22  1  0  0  0  0
 18 17  2  0  0  0  0
 18 19  1  0  0  0  0
 19 20  2  0  0  0  0
 20 21  1  0  0  0  0
 22 25  1  0  0  0  0
 22 21  2  0  0  0  0
 23 24  1  0  0  0  0
 24 17  1  0  0  0  0
 25 26  1  0  0  0  0
M  END
>  <MODEL>
9

>  <REMARK>
 VINA RESULT:    -6.326      7.221     10.346
 INTER + INTRA:         -11.139
 INTER:                  -9.655
 INTRA:                  -1.484
 UNBOUND:                -1.484
  Name = CHEMBL463438
  11 active torsions:
  status: ('A' for Active; 'I' for Inactive)
    1  A    between atoms: C_1  and  O_2
    2  A    between atoms: O_2  and  C_3
    3  A    between atoms: C_5  and  C_6
    4  A    between atoms: C_6  and  C_7
    5  A    between atoms: C_7  and  C_8
    6  A    between atoms: C_9  and  C_10
    7  A    between atoms: C_10  and  C_12
    8  A    between atoms: C_12  and  C_13
    9  A    between atoms: C_13  and  C_14
   10  A    between atoms: C_17  and  O_18
   11  A    between atoms: C_23  and  O_24
                            x       y       z     vdW  Elec       q    Type
                         _______ _______ _______ _____ _____    ______ ____

>  <TORSDO>
F 10

>  <SCORE>
-6.326

>  <RMSD_LB>
7.221

>  <RMSD_UB>
10.346

$$$$
