CHEMBL4527248
 OpenBabel10162523563D

 23 24  0  0  0  0  0  0  0  0999 V2000
  138.0590  138.3670  153.9090 N   0  0  0  0  0  0  0  0  0  0  0  0
  139.3270  138.8860  153.8620 C   0  0  0  0  0  0  0  0  0  0  0  0
  140.0330  138.9940  154.8590 O   0  0  0  0  0  0  0  0  0  0  0  0
  137.5210  138.3570  153.0850 H   0  0  0  0  0  0  0  0  0  0  0  0
  139.7820  139.2930  152.5600 C   0  0  0  0  0  0  0  0  0  0  0  0
  139.0990  140.2390  151.8370 N   0  0  0  0  0  0  0  0  0  0  0  0
  139.6430  140.5260  150.6410 N   0  0  0  0  0  0  0  0  0  0  0  0
  140.7180  139.7300  150.5790 C   0  0  0  0  0  0  0  0  0  0  0  0
  141.6020  139.7540  149.3860 C   0  0  0  0  0  1  0  0  0  0  0  0
  140.8370  138.9460  151.7470 C   0  0  0  0  0  0  0  0  0  0  0  0
  142.2080  137.6970  152.0390 Br  0  0  0  0  0  0  0  0  0  0  0  0
  138.2770  140.6710  152.1660 H   0  0  0  0  0  0  0  0  0  0  0  0
  137.4850  137.8380  155.1210 C   0  0  0  0  0  2  0  0  0  0  0  0
  134.8420  135.1090  155.5510 C   0  0  0  0  0  0  0  0  0  0  0  0
  135.7170  136.1670  155.8250 C   0  0  0  0  0  3  0  0  0  0  0  0
  136.6050  136.6440  154.8440 C   0  0  0  0  0  0  0  0  0  0  0  0
  136.6210  136.0290  153.5840 C   0  0  0  0  0  3  0  0  0  0  0  0
  135.7570  134.9700  153.3010 C   0  0  0  0  0  3  0  0  0  0  0  0
  134.8720  134.5200  154.2790 C   0  0  0  0  0  0  0  0  0  0  0  0
  134.2280  134.6910  157.8180 C   0  0  0  0  0  1  0  0  0  0  0  0
  133.9280  134.5970  156.4330 O   0  0  0  0  0  0  0  0  0  0  0  0
  134.0110  133.4940  153.9970 O   0  0  0  0  0  0  0  0  0  0  0  0
  133.5090  133.5070  153.2060 H   0  0  0  0  0  0  0  0  0  0  0  0
  1 13  1  0  0  0  0
  2  1  1  0  0  0  0
  2  3  2  0  0  0  0
  4  1  1  0  0  0  0
  5  2  1  0  0  0  0
  6 12  1  0  0  0  0
  6  5  1  0  0  0  0
  7  6  1  0  0  0  0
  8  7  2  0  0  0  0
  8 10  1  0  0  0  0
  9  8  1  0  0  0  0
 10 11  1  0  0  0  0
 10  5  2  0  0  0  0
 14 15  1  0  0  0  0
 14 21  1  0  0  0  0
 16 13  1  0  0  0  0
 16 15  2  0  0  0  0
 17 16  1  0  0  0  0
 18 17  2  0  0  0  0
 18 19  1  0  0  0  0
 19 14  2  0  0  0  0
 21 20  1  0  0  0  0
 22 19  1  0  0  0  0
 23 22  1  0  0  0  0
M  END
>  <MODEL>
1

>  <REMARK>
 VINA RESULT:    -6.857      0.000      0.000
 INTER + INTRA:          -9.154
 INTER:                  -8.753
 INTRA:                  -0.402
 UNBOUND:                -0.494
  Name = CHEMBL4527248
  7 active torsions:
  status: ('A' for Active; 'I' for Inactive)
    1  A    between atoms: C_1  and  O_2
    2  A    between atoms: O_2  and  C_3
    3  A    between atoms: C_5  and  C_6
    4  A    between atoms: C_6  and  N_7
    5  A    between atoms: C_8  and  C_10
    6  A    between atoms: C_13  and  C_14
    7  A    between atoms: C_19  and  O_20
                            x       y       z     vdW  Elec       q    Type
                         _______ _______ _______ _____ _____    ______ ____

>  <TORSDO>
F 5

>  <SCORE>
-6.857

>  <RMSD_LB>
0.000

>  <RMSD_UB>
0.000

$$$$
CHEMBL4527248
 OpenBabel10162523563D

 23 24  0  0  0  0  0  0  0  0999 V2000
  142.8900  139.6350  154.1260 N   0  0  0  0  0  0  0  0  0  0  0  0
  144.1960  139.3940  153.7860 C   0  0  0  0  0  0  0  0  0  0  0  0
  144.7770  138.3580  154.0930 O   0  0  0  0  0  0  0  0  0  0  0  0
  142.4960  140.5080  153.8980 H   0  0  0  0  0  0  0  0  0  0  0  0
  144.8450  140.4350  153.0370 C   0  0  0  0  0  0  0  0  0  0  0  0
  145.7190  141.3020  153.6450 N   0  0  0  0  0  0  0  0  0  0  0  0
  146.2560  142.2200  152.8210 N   0  0  0  0  0  0  0  0  0  0  0  0
  145.7050  141.9450  151.6320 C   0  0  0  0  0  0  0  0  0  0  0  0
  146.0530  142.7550  150.4370 C   0  0  0  0  0  1  0  0  0  0  0  0
  144.8200  140.8490  151.7240 C   0  0  0  0  0  0  0  0  0  0  0  0
  143.8430  140.1620  150.2760 Br  0  0  0  0  0  0  0  0  0  0  0  0
  145.9340  141.2570  154.6050 H   0  0  0  0  0  0  0  0  0  0  0  0
  142.0750  138.6590  154.8040 C   0  0  0  0  0  2  0  0  0  0  0  0
  138.4410  137.9240  153.8680 C   0  0  0  0  0  0  0  0  0  0  0  0
  139.5950  138.1800  154.6190 C   0  0  0  0  0  3  0  0  0  0  0  0
  140.8510  138.3000  153.9980 C   0  0  0  0  0  0  0  0  0  0  0  0
  140.9410  138.1360  152.6080 C   0  0  0  0  0  3  0  0  0  0  0  0
  139.7990  137.8750  151.8490 C   0  0  0  0  0  3  0  0  0  0  0  0
  138.5600  137.7760  152.4790 C   0  0  0  0  0  0  0  0  0  0  0  0
  136.8840  136.6750  155.1750 C   0  0  0  0  0  1  0  0  0  0  0  0
  137.1770  137.8170  154.3820 O   0  0  0  0  0  0  0  0  0  0  0  0
  137.4350  137.5390  151.7340 O   0  0  0  0  0  0  0  0  0  0  0  0
  136.6400  137.9950  151.9280 H   0  0  0  0  0  0  0  0  0  0  0  0
  1 13  1  0  0  0  0
  2  3  2  0  0  0  0
  2  1  1  0  0  0  0
  4  1  1  0  0  0  0
  5  6  1  0  0  0  0
  5  2  1  0  0  0  0
  6 12  1  0  0  0  0
  7  6  1  0  0  0  0
  8 10  1  0  0  0  0
  8  7  2  0  0  0  0
  9  8  1  0  0  0  0
 10  5  2  0  0  0  0
 11 10  1  0  0  0  0
 14 21  1  0  0  0  0
 14 15  1  0  0  0  0
 16 15  2  0  0  0  0
 16 13  1  0  0  0  0
 17 16  1  0  0  0  0
 18 19  1  0  0  0  0
 18 17  2  0  0  0  0
 19 14  2  0  0  0  0
 21 20  1  0  0  0  0
 22 23  1  0  0  0  0
 22 19  1  0  0  0  0
M  END
>  <MODEL>
2

>  <REMARK>
 VINA RESULT:    -6.826      3.952      5.165
 INTER + INTRA:          -9.116
 INTER:                  -8.604
 INTRA:                  -0.512
 UNBOUND:                -0.494
  Name = CHEMBL4527248
  7 active torsions:
  status: ('A' for Active; 'I' for Inactive)
    1  A    between atoms: C_1  and  O_2
    2  A    between atoms: O_2  and  C_3
    3  A    between atoms: C_5  and  C_6
    4  A    between atoms: C_6  and  N_7
    5  A    between atoms: C_8  and  C_10
    6  A    between atoms: C_13  and  C_14
    7  A    between atoms: C_19  and  O_20
                            x       y       z     vdW  Elec       q    Type
                         _______ _______ _______ _____ _____    ______ ____

>  <TORSDO>
F 5

>  <SCORE>
-6.826

>  <RMSD_LB>
3.952

>  <RMSD_UB>
5.165

$$$$
CHEMBL4527248
 OpenBabel10162523563D

 23 24  0  0  0  0  0  0  0  0999 V2000
  143.5380  138.0840  152.2530 N   0  0  0  0  0  0  0  0  0  0  0  0
  143.8800  139.3820  151.9710 C   0  0  0  0  0  0  0  0  0  0  0  0
  143.3030  140.0440  151.1150 O   0  0  0  0  0  0  0  0  0  0  0  0
  144.0740  137.5870  152.9130 H   0  0  0  0  0  0  0  0  0  0  0  0
  144.9600  139.9230  152.7510 C   0  0  0  0  0  0  0  0  0  0  0  0
  145.3760  139.3050  153.9040 N   0  0  0  0  0  0  0  0  0  0  0  0
  146.3990  139.9180  154.5260 N   0  0  0  0  0  0  0  0  0  0  0  0
  146.6530  140.9820  153.7530 C   0  0  0  0  0  0  0  0  0  0  0  0
  147.7400  141.9280  154.1110 C   0  0  0  0  0  1  0  0  0  0  0  0
  145.7790  141.0240  152.6450 C   0  0  0  0  0  0  0  0  0  0  0  0
  145.8090  142.3670  151.3330 Br  0  0  0  0  0  0  0  0  0  0  0  0
  144.9600  138.4810  154.2470 H   0  0  0  0  0  0  0  0  0  0  0  0
  142.4260  137.4220  151.6200 C   0  0  0  0  0  2  0  0  0  0  0  0
  139.9580  138.2330  154.4250 C   0  0  0  0  0  0  0  0  0  0  0  0
  141.1410  137.9250  153.7440 C   0  0  0  0  0  3  0  0  0  0  0  0
  141.1350  137.6710  152.3610 C   0  0  0  0  0  0  0  0  0  0  0  0
  139.9160  137.7070  151.6670 C   0  0  0  0  0  3  0  0  0  0  0  0
  138.7290  138.0080  152.3370 C   0  0  0  0  0  3  0  0  0  0  0  0
  138.7560  138.2740  153.7050 C   0  0  0  0  0  0  0  0  0  0  0  0
  140.0170  137.4410  156.6740 C   0  0  0  0  0  1  0  0  0  0  0  0
  139.8720  138.5190  155.7620 O   0  0  0  0  0  0  0  0  0  0  0  0
  137.5950  138.5870  154.3600 O   0  0  0  0  0  0  0  0  0  0  0  0
  136.9020  139.0230  153.9030 H   0  0  0  0  0  0  0  0  0  0  0  0
  1  4  1  0  0  0  0
  2  1  1  0  0  0  0
  2  5  1  0  0  0  0
  3  2  2  0  0  0  0
  5  6  1  0  0  0  0
  6 12  1  0  0  0  0
  6  7  1  0  0  0  0
  8  9  1  0  0  0  0
  8  7  2  0  0  0  0
 10  5  2  0  0  0  0
 10  8  1  0  0  0  0
 11 10  1  0  0  0  0
 13  1  1  0  0  0  0
 13 16  1  0  0  0  0
 14 21  1  0  0  0  0
 15 14  1  0  0  0  0
 16 15  2  0  0  0  0
 17 18  2  0  0  0  0
 17 16  1  0  0  0  0
 18 19  1  0  0  0  0
 19 22  1  0  0  0  0
 19 14  2  0  0  0  0
 21 20  1  0  0  0  0
 23 22  1  0  0  0  0
M  END
>  <MODEL>
3

>  <REMARK>
 VINA RESULT:    -6.812      4.398      6.039
 INTER + INTRA:          -9.098
 INTER:                  -8.687
 INTRA:                  -0.410
 UNBOUND:                -0.494
  Name = CHEMBL4527248
  7 active torsions:
  status: ('A' for Active; 'I' for Inactive)
    1  A    between atoms: C_1  and  O_2
    2  A    between atoms: O_2  and  C_3
    3  A    between atoms: C_5  and  C_6
    4  A    between atoms: C_6  and  N_7
    5  A    between atoms: C_8  and  C_10
    6  A    between atoms: C_13  and  C_14
    7  A    between atoms: C_19  and  O_20
                            x       y       z     vdW  Elec       q    Type
                         _______ _______ _______ _____ _____    ______ ____

>  <TORSDO>
F 5

>  <SCORE>
-6.812

>  <RMSD_LB>
4.398

>  <RMSD_UB>
6.039

$$$$
CHEMBL4527248
 OpenBabel10162523563D

 23 24  0  0  0  0  0  0  0  0999 V2000
  135.8340  134.5560  152.2590 N   0  0  0  0  0  0  0  0  0  0  0  0
  135.9270  135.6020  153.1390 C   0  0  0  0  0  0  0  0  0  0  0  0
  136.4060  136.6870  152.8250 O   0  0  0  0  0  0  0  0  0  0  0  0
  135.4890  133.6930  152.5850 H   0  0  0  0  0  0  0  0  0  0  0  0
  135.4180  135.3500  154.4600 C   0  0  0  0  0  0  0  0  0  0  0  0
  134.1470  134.8650  154.6450 N   0  0  0  0  0  0  0  0  0  0  0  0
  133.8080  134.6700  155.9330 N   0  0  0  0  0  0  0  0  0  0  0  0
  134.8970  135.0510  156.6120 C   0  0  0  0  0  0  0  0  0  0  0  0
  134.9190  134.9830  158.0950 C   0  0  0  0  0  1  0  0  0  0  0  0
  135.9160  135.4850  155.7360 C   0  0  0  0  0  0  0  0  0  0  0  0
  137.5940  136.1070  156.3020 Br  0  0  0  0  0  0  0  0  0  0  0  0
  133.5340  134.6750  153.8990 H   0  0  0  0  0  0  0  0  0  0  0  0
  136.2220  134.6710  150.8760 C   0  0  0  0  0  2  0  0  0  0  0  0
  134.1540  134.2730  147.6850 C   0  0  0  0  0  0  0  0  0  0  0  0
  135.2070  134.5700  148.5580 C   0  0  0  0  0  3  0  0  0  0  0  0
  135.0560  134.4300  149.9490 C   0  0  0  0  0  0  0  0  0  0  0  0
  133.8200  134.0070  150.4600 C   0  0  0  0  0  3  0  0  0  0  0  0
  132.7610  133.7130  149.6000 C   0  0  0  0  0  3  0  0  0  0  0  0
  132.9330  133.8410  148.2230 C   0  0  0  0  0  0  0  0  0  0  0  0
  134.1950  135.6510  145.7380 C   0  0  0  0  0  1  0  0  0  0  0  0
  134.2180  134.3550  146.3190 O   0  0  0  0  0  0  0  0  0  0  0  0
  131.9010  133.5360  147.3770 O   0  0  0  0  0  0  0  0  0  0  0  0
  131.4120  132.7460  147.5000 H   0  0  0  0  0  0  0  0  0  0  0  0
  1  4  1  0  0  0  0
  1  2  1  0  0  0  0
  2  5  1  0  0  0  0
  3  2  2  0  0  0  0
  5  6  1  0  0  0  0
  5 10  2  0  0  0  0
  6  7  1  0  0  0  0
  7  8  2  0  0  0  0
  8  9  1  0  0  0  0
 10 11  1  0  0  0  0
 10  8  1  0  0  0  0
 12  6  1  0  0  0  0
 13  1  1  0  0  0  0
 14 19  2  0  0  0  0
 14 15  1  0  0  0  0
 15 16  2  0  0  0  0
 16 17  1  0  0  0  0
 16 13  1  0  0  0  0
 18 17  2  0  0  0  0
 19 18  1  0  0  0  0
 20 21  1  0  0  0  0
 21 14  1  0  0  0  0
 22 23  1  0  0  0  0
 22 19  1  0  0  0  0
M  END
>  <MODEL>
4

>  <REMARK>
 VINA RESULT:    -6.766      4.822      7.606
 INTER + INTRA:          -9.040
 INTER:                  -8.604
 INTRA:                  -0.437
 UNBOUND:                -0.494
  Name = CHEMBL4527248
  7 active torsions:
  status: ('A' for Active; 'I' for Inactive)
    1  A    between atoms: C_1  and  O_2
    2  A    between atoms: O_2  and  C_3
    3  A    between atoms: C_5  and  C_6
    4  A    between atoms: C_6  and  N_7
    5  A    between atoms: C_8  and  C_10
    6  A    between atoms: C_13  and  C_14
    7  A    between atoms: C_19  and  O_20
                            x       y       z     vdW  Elec       q    Type
                         _______ _______ _______ _____ _____    ______ ____

>  <TORSDO>
F 5

>  <SCORE>
-6.766

>  <RMSD_LB>
4.822

>  <RMSD_UB>
7.606

$$$$
CHEMBL4527248
 OpenBabel10162523563D

 23 24  0  0  0  0  0  0  0  0999 V2000
  143.2490  140.0010  152.4930 N   0  0  0  0  0  0  0  0  0  0  0  0
  142.4470  138.9060  152.3030 C   0  0  0  0  0  0  0  0  0  0  0  0
  142.6780  138.0590  151.4470 O   0  0  0  0  0  0  0  0  0  0  0  0
  142.9820  140.6730  153.1600 H   0  0  0  0  0  0  0  0  0  0  0  0
  141.3140  138.8070  153.1830 C   0  0  0  0  0  0  0  0  0  0  0  0
  141.4090  139.1790  154.5010 N   0  0  0  0  0  0  0  0  0  0  0  0
  140.2700  139.0400  155.2030 N   0  0  0  0  0  0  0  0  0  0  0  0
  139.4010  138.5500  154.3090 C   0  0  0  0  0  0  0  0  0  0  0  0
  138.0010  138.2550  154.7070 C   0  0  0  0  0  1  0  0  0  0  0  0
  140.0100  138.3860  153.0460 C   0  0  0  0  0  0  0  0  0  0  0  0
  139.1260  137.7150  151.5330 Br  0  0  0  0  0  0  0  0  0  0  0  0
  142.2430  139.5190  154.9000 H   0  0  0  0  0  0  0  0  0  0  0  0
  144.4680  140.2040  151.7500 C   0  0  0  0  0  2  0  0  0  0  0  0
  147.3750  139.8370  154.2060 C   0  0  0  0  0  0  0  0  0  0  0  0
  146.2540  139.5450  153.4200 C   0  0  0  0  0  3  0  0  0  0  0  0
  145.6220  140.5450  152.6590 C   0  0  0  0  0  0  0  0  0  0  0  0
  146.1180  141.8560  152.7140 C   0  0  0  0  0  3  0  0  0  0  0  0
  147.2320  142.1600  153.4980 C   0  0  0  0  0  3  0  0  0  0  0  0
  147.8550  141.1540  154.2330 C   0  0  0  0  0  0  0  0  0  0  0  0
  147.4020  138.3550  156.0760 C   0  0  0  0  0  1  0  0  0  0  0  0
  148.0670  138.9250  154.9580 O   0  0  0  0  0  0  0  0  0  0  0  0
  148.9590  141.4460  154.9890 O   0  0  0  0  0  0  0  0  0  0  0  0
  149.1530  140.9380  155.7520 H   0  0  0  0  0  0  0  0  0  0  0  0
  1  4  1  0  0  0  0
  2  1  1  0  0  0  0
  2  5  1  0  0  0  0
  3  2  2  0  0  0  0
  5  6  1  0  0  0  0
  6 12  1  0  0  0  0
  6  7  1  0  0  0  0
  8  9  1  0  0  0  0
  8  7  2  0  0  0  0
 10  5  2  0  0  0  0
 10  8  1  0  0  0  0
 11 10  1  0  0  0  0
 13  1  1  0  0  0  0
 13 16  1  0  0  0  0
 14 19  1  0  0  0  0
 14 21  1  0  0  0  0
 15 14  2  0  0  0  0
 16 17  2  0  0  0  0
 16 15  1  0  0  0  0
 17 18  1  0  0  0  0
 18 19  2  0  0  0  0
 19 22  1  0  0  0  0
 21 20  1  0  0  0  0
 22 23  1  0  0  0  0
M  END
>  <MODEL>
5

>  <REMARK>
 VINA RESULT:    -6.752      5.281      9.675
 INTER + INTRA:          -9.022
 INTER:                  -8.592
 INTRA:                  -0.430
 UNBOUND:                -0.494
  Name = CHEMBL4527248
  7 active torsions:
  status: ('A' for Active; 'I' for Inactive)
    1  A    between atoms: C_1  and  O_2
    2  A    between atoms: O_2  and  C_3
    3  A    between atoms: C_5  and  C_6
    4  A    between atoms: C_6  and  N_7
    5  A    between atoms: C_8  and  C_10
    6  A    between atoms: C_13  and  C_14
    7  A    between atoms: C_19  and  O_20
                            x       y       z     vdW  Elec       q    Type
                         _______ _______ _______ _____ _____    ______ ____

>  <TORSDO>
F 5

>  <SCORE>
-6.752

>  <RMSD_LB>
5.281

>  <RMSD_UB>
9.675

$$$$
CHEMBL4527248
 OpenBabel10162523563D

 23 24  0  0  0  0  0  0  0  0999 V2000
  135.1670  134.9790  154.3660 N   0  0  0  0  0  0  0  0  0  0  0  0
  134.8890  135.1550  155.6970 C   0  0  0  0  0  0  0  0  0  0  0  0
  133.9830  134.5570  156.2670 O   0  0  0  0  0  0  0  0  0  0  0  0
  135.8720  135.5280  153.9540 H   0  0  0  0  0  0  0  0  0  0  0  0
  135.7380  136.0870  156.3900 C   0  0  0  0  0  0  0  0  0  0  0  0
  136.1320  137.2590  155.7950 N   0  0  0  0  0  0  0  0  0  0  0  0
  136.9170  138.0370  156.5620 N   0  0  0  0  0  0  0  0  0  0  0  0
  137.0470  137.3390  157.6980 C   0  0  0  0  0  0  0  0  0  0  0  0
  137.8580  137.8750  158.8200 C   0  0  0  0  0  1  0  0  0  0  0  0
  136.3350  136.1220  157.6300 C   0  0  0  0  0  0  0  0  0  0  0  0
  136.2770  134.8590  159.0180 Br  0  0  0  0  0  0  0  0  0  0  0  0
  135.8620  137.5110  154.8820 H   0  0  0  0  0  0  0  0  0  0  0  0
  134.4640  134.0220  153.5500 C   0  0  0  0  0  2  0  0  0  0  0  0
  134.4770  133.6030  149.7500 C   0  0  0  0  0  0  0  0  0  0  0  0
  134.1380  133.4660  151.1010 C   0  0  0  0  0  3  0  0  0  0  0  0
  134.8870  134.1060  152.1040 C   0  0  0  0  0  0  0  0  0  0  0  0
  136.0020  134.8730  151.7360 C   0  0  0  0  0  3  0  0  0  0  0  0
  136.3530  135.0130  150.3920 C   0  0  0  0  0  3  0  0  0  0  0  0
  135.5900  134.3850  149.4100 C   0  0  0  0  0  0  0  0  0  0  0  0
  132.5410  133.6100  148.3550 C   0  0  0  0  0  1  0  0  0  0  0  0
  133.7930  133.0390  148.7060 O   0  0  0  0  0  0  0  0  0  0  0  0
  135.9220  134.5360  148.0900 O   0  0  0  0  0  0  0  0  0  0  0  0
  135.4020  134.1270  147.4260 H   0  0  0  0  0  0  0  0  0  0  0  0
  1  2  1  0  0  0  0
  2  3  2  0  0  0  0
  2  5  1  0  0  0  0
  4  1  1  0  0  0  0
  5 10  2  0  0  0  0
  6  5  1  0  0  0  0
  6  7  1  0  0  0  0
  7  8  2  0  0  0  0
  8  9  1  0  0  0  0
 10  8  1  0  0  0  0
 10 11  1  0  0  0  0
 12  6  1  0  0  0  0
 13  1  1  0  0  0  0
 14 15  1  0  0  0  0
 15 16  2  0  0  0  0
 16 13  1  0  0  0  0
 17 16  1  0  0  0  0
 18 17  2  0  0  0  0
 19 14  2  0  0  0  0
 19 18  1  0  0  0  0
 20 21  1  0  0  0  0
 21 14  1  0  0  0  0
 22 19  1  0  0  0  0
 23 22  1  0  0  0  0
M  END
>  <MODEL>
6

>  <REMARK>
 VINA RESULT:    -6.677      4.779      6.762
 INTER + INTRA:          -8.928
 INTER:                  -8.557
 INTRA:                  -0.371
 UNBOUND:                -0.494
  Name = CHEMBL4527248
  7 active torsions:
  status: ('A' for Active; 'I' for Inactive)
    1  A    between atoms: C_1  and  O_2
    2  A    between atoms: O_2  and  C_3
    3  A    between atoms: C_5  and  C_6
    4  A    between atoms: C_6  and  N_7
    5  A    between atoms: C_8  and  C_10
    6  A    between atoms: C_13  and  C_14
    7  A    between atoms: C_19  and  O_20
                            x       y       z     vdW  Elec       q    Type
                         _______ _______ _______ _____ _____    ______ ____

>  <TORSDO>
F 5

>  <SCORE>
-6.677

>  <RMSD_LB>
4.779

>  <RMSD_UB>
6.762

$$$$
CHEMBL4527248
 OpenBabel10162523563D

 23 24  0  0  0  0  0  0  0  0999 V2000
  135.4260  134.6900  152.0310 N   0  0  0  0  0  0  0  0  0  0  0  0
  135.3090  135.9150  152.6350 C   0  0  0  0  0  0  0  0  0  0  0  0
  134.2300  136.3730  152.9940 O   0  0  0  0  0  0  0  0  0  0  0  0
  136.3120  134.4000  151.7170 H   0  0  0  0  0  0  0  0  0  0  0  0
  136.5410  136.6310  152.8280 C   0  0  0  0  0  0  0  0  0  0  0  0
  137.2870  137.0540  151.7560 N   0  0  0  0  0  0  0  0  0  0  0  0
  138.4100  137.7170  152.0860 N   0  0  0  0  0  0  0  0  0  0  0  0
  138.3990  137.7180  153.4250 C   0  0  0  0  0  0  0  0  0  0  0  0
  139.4960  138.3700  154.1840 C   0  0  0  0  0  1  0  0  0  0  0  0
  137.2600  137.0500  153.9250 C   0  0  0  0  0  0  0  0  0  0  0  0
  136.8870  136.8300  155.7510 Br  0  0  0  0  0  0  0  0  0  0  0  0
  137.0230  136.8860  150.8220 H   0  0  0  0  0  0  0  0  0  0  0  0
  134.2990  133.8120  151.8390 C   0  0  0  0  0  2  0  0  0  0  0  0
  133.1110  134.6200  148.2960 C   0  0  0  0  0  0  0  0  0  0  0  0
  133.3640  134.7230  149.6690 C   0  0  0  0  0  3  0  0  0  0  0  0
  133.9530  133.6610  150.3790 C   0  0  0  0  0  0  0  0  0  0  0  0
  134.2670  132.4770  149.6950 C   0  0  0  0  0  3  0  0  0  0  0  0
  134.0140  132.3610  148.3270 C   0  0  0  0  0  3  0  0  0  0  0  0
  133.4450  133.4290  147.6360 C   0  0  0  0  0  0  0  0  0  0  0  0
  133.3350  136.7860  147.3200 C   0  0  0  0  0  1  0  0  0  0  0  0
  132.5660  135.6090  147.5210 O   0  0  0  0  0  0  0  0  0  0  0  0
  133.2140  133.3240  146.2910 O   0  0  0  0  0  0  0  0  0  0  0  0
  132.4950  133.7830  145.9010 H   0  0  0  0  0  0  0  0  0  0  0  0
  1  2  1  0  0  0  0
  2  5  1  0  0  0  0
  2  3  2  0  0  0  0
  4  1  1  0  0  0  0
  5 10  2  0  0  0  0
  6  7  1  0  0  0  0
  6  5  1  0  0  0  0
  7  8  2  0  0  0  0
  8 10  1  0  0  0  0
  8  9  1  0  0  0  0
 10 11  1  0  0  0  0
 12  6  1  0  0  0  0
 13  1  1  0  0  0  0
 14 15  1  0  0  0  0
 15 16  2  0  0  0  0
 16 13  1  0  0  0  0
 17 16  1  0  0  0  0
 18 17  2  0  0  0  0
 19 14  2  0  0  0  0
 19 18  1  0  0  0  0
 20 21  1  0  0  0  0
 21 14  1  0  0  0  0
 22 19  1  0  0  0  0
 23 22  1  0  0  0  0
M  END
>  <MODEL>
7

>  <REMARK>
 VINA RESULT:    -6.630      4.546      6.306
 INTER + INTRA:          -8.869
 INTER:                  -8.375
 INTRA:                  -0.493
 UNBOUND:                -0.494
  Name = CHEMBL4527248
  7 active torsions:
  status: ('A' for Active; 'I' for Inactive)
    1  A    between atoms: C_1  and  O_2
    2  A    between atoms: O_2  and  C_3
    3  A    between atoms: C_5  and  C_6
    4  A    between atoms: C_6  and  N_7
    5  A    between atoms: C_8  and  C_10
    6  A    between atoms: C_13  and  C_14
    7  A    between atoms: C_19  and  O_20
                            x       y       z     vdW  Elec       q    Type
                         _______ _______ _______ _____ _____    ______ ____

>  <TORSDO>
F 5

>  <SCORE>
-6.630

>  <RMSD_LB>
4.546

>  <RMSD_UB>
6.306

$$$$
CHEMBL4527248
 OpenBabel10162523563D

 23 24  0  0  0  0  0  0  0  0999 V2000
  144.1800  139.8100  153.7800 N   0  0  0  0  0  0  0  0  0  0  0  0
  145.4170  139.6400  154.3460 C   0  0  0  0  0  0  0  0  0  0  0  0
  145.6190  138.8520  155.2650 O   0  0  0  0  0  0  0  0  0  0  0  0
  144.0700  140.4960  153.0830 H   0  0  0  0  0  0  0  0  0  0  0  0
  146.4710  140.4420  153.7880 C   0  0  0  0  0  0  0  0  0  0  0  0
  147.2090  141.2870  154.5790 N   0  0  0  0  0  0  0  0  0  0  0  0
  148.1660  141.9690  153.9240 N   0  0  0  0  0  0  0  0  0  0  0  0
  148.0400  141.5600  152.6560 C   0  0  0  0  0  0  0  0  0  0  0  0
  148.9370  142.0960  151.6010 C   0  0  0  0  0  1  0  0  0  0  0  0
  146.9970  140.6170  152.5280 C   0  0  0  0  0  0  0  0  0  0  0  0
  146.5000  139.8140  150.9060 Br  0  0  0  0  0  0  0  0  0  0  0  0
  147.0520  141.3850  155.5470 H   0  0  0  0  0  0  0  0  0  0  0  0
  143.0370  139.0230  154.1680 C   0  0  0  0  0  2  0  0  0  0  0  0
  140.5080  137.6230  151.6660 C   0  0  0  0  0  0  0  0  0  0  0  0
  141.0570  138.2440  152.7940 C   0  0  0  0  0  3  0  0  0  0  0  0
  142.4490  138.2790  152.9940 C   0  0  0  0  0  0  0  0  0  0  0  0
  143.2880  137.6610  152.0560 C   0  0  0  0  0  3  0  0  0  0  0  0
  142.7510  137.0340  150.9300 C   0  0  0  0  0  3  0  0  0  0  0  0
  141.3700  137.0220  150.7390 C   0  0  0  0  0  0  0  0  0  0  0  0
  138.2590  137.6090  152.4650 C   0  0  0  0  0  1  0  0  0  0  0  0
  139.1700  137.5620  151.3760 O   0  0  0  0  0  0  0  0  0  0  0  0
  140.8430  136.4240  149.6260 O   0  0  0  0  0  0  0  0  0  0  0  0
  140.3870  135.6080  149.7040 H   0  0  0  0  0  0  0  0  0  0  0  0
  1 13  1  0  0  0  0
  1  2  1  0  0  0  0
  2  3  2  0  0  0  0
  4  1  1  0  0  0  0
  5  2  1  0  0  0  0
  5  6  1  0  0  0  0
  6 12  1  0  0  0  0
  7  6  1  0  0  0  0
  8  7  2  0  0  0  0
  9  8  1  0  0  0  0
 10  8  1  0  0  0  0
 10  5  2  0  0  0  0
 11 10  1  0  0  0  0
 14 15  1  0  0  0  0
 15 16  2  0  0  0  0
 16 13  1  0  0  0  0
 17 16  1  0  0  0  0
 18 17  2  0  0  0  0
 19 18  1  0  0  0  0
 19 14  2  0  0  0  0
 21 14  1  0  0  0  0
 21 20  1  0  0  0  0
 22 23  1  0  0  0  0
 22 19  1  0  0  0  0
M  END
>  <MODEL>
8

>  <REMARK>
 VINA RESULT:    -6.580      5.309      7.194
 INTER + INTRA:          -8.805
 INTER:                  -8.274
 INTRA:                  -0.531
 UNBOUND:                -0.494
  Name = CHEMBL4527248
  7 active torsions:
  status: ('A' for Active; 'I' for Inactive)
    1  A    between atoms: C_1  and  O_2
    2  A    between atoms: O_2  and  C_3
    3  A    between atoms: C_5  and  C_6
    4  A    between atoms: C_6  and  N_7
    5  A    between atoms: C_8  and  C_10
    6  A    between atoms: C_13  and  C_14
    7  A    between atoms: C_19  and  O_20
                            x       y       z     vdW  Elec       q    Type
                         _______ _______ _______ _____ _____    ______ ____

>  <TORSDO>
F 5

>  <SCORE>
-6.580

>  <RMSD_LB>
5.309

>  <RMSD_UB>
7.194

$$$$
CHEMBL4527248
 OpenBabel10162523563D

 23 24  0  0  0  0  0  0  0  0999 V2000
  144.4220  138.3510  153.3160 N   0  0  0  0  0  0  0  0  0  0  0  0
  144.9230  139.2150  152.3770 C   0  0  0  0  0  0  0  0  0  0  0  0
  144.5780  139.1830  151.2000 O   0  0  0  0  0  0  0  0  0  0  0  0
  144.7780  138.3900  154.2320 H   0  0  0  0  0  0  0  0  0  0  0  0
  145.8810  140.1720  152.8620 C   0  0  0  0  0  0  0  0  0  0  0  0
  145.5370  141.4900  153.0300 N   0  0  0  0  0  0  0  0  0  0  0  0
  146.5290  142.2690  153.4980 N   0  0  0  0  0  0  0  0  0  0  0  0
  147.5610  141.4270  153.6310 C   0  0  0  0  0  0  0  0  0  0  0  0
  148.8700  141.9170  154.1340 C   0  0  0  0  0  1  0  0  0  0  0  0
  147.2020  140.1180  153.2420 C   0  0  0  0  0  0  0  0  0  0  0  0
  148.3750  138.6530  153.2750 Br  0  0  0  0  0  0  0  0  0  0  0  0
  144.6380  141.8380  152.8250 H   0  0  0  0  0  0  0  0  0  0  0  0
  143.3950  137.3870  153.0090 C   0  0  0  0  0  2  0  0  0  0  0  0
  139.6850  138.2600  152.7000 C   0  0  0  0  0  0  0  0  0  0  0  0
  140.9830  137.8410  152.3840 C   0  0  0  0  0  3  0  0  0  0  0  0
  142.0200  137.9190  153.3310 C   0  0  0  0  0  0  0  0  0  0  0  0
  141.7430  138.4470  154.6010 C   0  0  0  0  0  3  0  0  0  0  0  0
  140.4540  138.8730  154.9260 C   0  0  0  0  0  3  0  0  0  0  0  0
  139.4350  138.7730  153.9810 C   0  0  0  0  0  0  0  0  0  0  0  0
  138.7870  138.6900  150.5320 C   0  0  0  0  0  1  0  0  0  0  0  0
  138.6110  138.1980  151.8530 O   0  0  0  0  0  0  0  0  0  0  0  0
  138.1660  139.1730  154.3040 O   0  0  0  0  0  0  0  0  0  0  0  0
  138.0330  139.9700  154.7800 H   0  0  0  0  0  0  0  0  0  0  0  0
  1  4  1  0  0  0  0
  2  5  1  0  0  0  0
  2  1  1  0  0  0  0
  3  2  2  0  0  0  0
  5  6  1  0  0  0  0
  5 10  2  0  0  0  0
  6  7  1  0  0  0  0
  7  8  2  0  0  0  0
  8  9  1  0  0  0  0
 10 11  1  0  0  0  0
 10  8  1  0  0  0  0
 12  6  1  0  0  0  0
 13  1  1  0  0  0  0
 13 16  1  0  0  0  0
 14 19  1  0  0  0  0
 15 14  2  0  0  0  0
 15 16  1  0  0  0  0
 16 17  2  0  0  0  0
 17 18  1  0  0  0  0
 19 22  1  0  0  0  0
 19 18  2  0  0  0  0
 20 21  1  0  0  0  0
 21 14  1  0  0  0  0
 22 23  1  0  0  0  0
M  END
>  <MODEL>
9

>  <REMARK>
 VINA RESULT:    -6.377      4.913      6.846
 INTER + INTRA:          -8.548
 INTER:                  -8.054
 INTRA:                  -0.494
 UNBOUND:                -0.494
  Name = CHEMBL4527248
  7 active torsions:
  status: ('A' for Active; 'I' for Inactive)
    1  A    between atoms: C_1  and  O_2
    2  A    between atoms: O_2  and  C_3
    3  A    between atoms: C_5  and  C_6
    4  A    between atoms: C_6  and  N_7
    5  A    between atoms: C_8  and  C_10
    6  A    between atoms: C_13  and  C_14
    7  A    between atoms: C_19  and  O_20
                            x       y       z     vdW  Elec       q    Type
                         _______ _______ _______ _____ _____    ______ ____

>  <TORSDO>
F 5

>  <SCORE>
-6.377

>  <RMSD_LB>
4.913

>  <RMSD_UB>
6.846

$$$$
