CHEMBL1088457
 OpenBabel10162523413D

 29 30  0  0  1  0  0  0  0  0999 V2000
  140.5840  138.2300  152.6900 C   0  0  1  0  0  3  0  0  0  0  0  0
  138.6180  138.3090  154.2610 C   0  0  0  0  0  3  0  0  0  0  0  0
  139.9240  138.0960  154.0290 C   0  0  0  0  0  3  0  0  0  0  0  0
  137.9780  138.1010  155.6060 C   0  0  0  0  0  2  0  0  0  0  0  0
  138.2240  136.6940  156.1560 C   0  0  0  0  0  2  0  0  0  0  0  0
  134.8660  134.9390  155.7300 C   0  0  0  0  0  0  0  0  0  0  0  0
  136.0700  135.5910  155.4450 C   0  0  0  0  0  3  0  0  0  0  0  0
  136.9390  135.9750  156.4770 C   0  0  0  0  0  0  0  0  0  0  0  0
  136.6070  135.6800  157.8030 C   0  0  0  0  0  3  0  0  0  0  0  0
  135.4080  135.0330  158.1020 C   0  0  0  0  0  3  0  0  0  0  0  0
  134.5470  134.6710  157.0680 C   0  0  0  0  0  0  0  0  0  0  0  0
  134.4560  133.9370  153.6070 C   0  0  0  0  0  1  0  0  0  0  0  0
  133.9520  134.5380  154.7910 O   0  0  0  0  0  0  0  0  0  0  0  0
  133.3640  134.0430  157.3610 O   0  0  0  0  0  0  0  0  0  0  0  0
  133.3700  133.2180  157.8060 H   0  0  0  0  0  0  0  0  0  0  0  0
  140.4290  139.5770  152.2580 O   0  0  0  0  0  0  0  0  0  0  0  0
  139.6280  139.6520  151.7150 H   0  0  0  0  0  0  0  0  0  0  0  0
  142.0770  137.8900  152.7610 C   0  0  0  0  0  2  0  0  0  0  0  0
  142.8820  138.9820  153.4700 C   0  0  0  0  0  2  0  0  0  0  0  0
  144.3080  138.5700  153.7190 C   0  0  0  0  0  0  0  0  0  0  0  0
  144.6650  137.2210  153.7040 C   0  0  0  0  0  3  0  0  0  0  0  0
  145.9850  136.8430  153.9470 C   0  0  0  0  0  3  0  0  0  0  0  0
  146.9630  137.8110  154.2010 C   0  0  0  0  0  0  0  0  0  0  0  0
  146.6280  139.1700  154.2110 C   0  0  0  0  0  0  0  0  0  0  0  0
  145.2960  139.5320  153.9640 C   0  0  0  0  0  3  0  0  0  0  0  0
  148.2420  137.3860  154.4360 O   0  0  0  0  0  0  0  0  0  0  0  0
  148.6890  136.8700  153.7950 H   0  0  0  0  0  0  0  0  0  0  0  0
  147.4400  140.2490  154.4390 O   0  0  0  0  0  0  0  0  0  0  0  0
  146.9990  141.5240  153.9950 C   0  0  0  0  0  1  0  0  0  0  0  0
  1 18  1  1  0  0  0
  1  3  1  0  0  0  0
  2  4  1  0  0  0  0
  3  2  2  0  0  0  0
  4  5  1  0  0  0  0
  5  8  1  0  0  0  0
  6 11  1  0  0  0  0
  7  6  2  0  0  0  0
  7  8  1  0  0  0  0
  8  9  2  0  0  0  0
  9 10  1  0  0  0  0
 11 14  1  0  0  0  0
 11 10  2  0  0  0  0
 12 13  1  0  0  0  0
 13  6  1  0  0  0  0
 14 15  1  0  0  0  0
 16  1  1  0  0  0  0
 17 16  1  0  0  0  0
 18 19  1  0  0  0  0
 19 20  1  0  0  0  0
 20 25  1  0  0  0  0
 21 20  2  0  0  0  0
 21 22  1  0  0  0  0
 22 23  2  0  0  0  0
 23 24  1  0  0  0  0
 23 26  1  0  0  0  0
 24 28  1  0  0  0  0
 25 24  2  0  0  0  0
 27 26  1  0  0  0  0
 29 28  1  0  0  0  0
M  END
>  <MODEL>
1

>  <REMARK>
 VINA RESULT:    -7.098      0.000      0.000
 INTER + INTRA:         -12.511
 INTER:                 -11.742
 INTRA:                  -0.769
 UNBOUND:                -1.057
  Name = CHEMBL1088457
  14 active torsions:
  status: ('A' for Active; 'I' for Inactive)
    1  A    between atoms: C_1  and  O_2
    2  A    between atoms: O_2  and  C_3
    3  A    between atoms: C_5  and  C_6
    4  A    between atoms: C_6  and  C_7
    5  A    between atoms: C_7  and  C_8
    6  A    between atoms: C_9  and  C_10
    7  A    between atoms: C_10  and  O_11
    8  A    between atoms: C_10  and  C_12
    9  A    between atoms: C_12  and  C_13
   10  A    between atoms: C_13  and  C_14
   11  A    between atoms: C_17  and  O_18
   12  A    between atoms: C_19  and  O_20
   13  A    between atoms: O_20  and  C_21
   14  A    between atoms: C_25  and  O_26
                            x       y       z     vdW  Elec       q    Type
                         _______ _______ _______ _____ _____    ______ ____

>  <TORSDO>
F 12

>  <SCORE>
-7.098

>  <RMSD_LB>
0.000

>  <RMSD_UB>
0.000

$$$$
CHEMBL1088457
 OpenBabel10162523413D

 29 30  0  0  1  0  0  0  0  0999 V2000
  141.5650  138.7050  154.7280 C   0  0  1  0  0  3  0  0  0  0  0  0
  139.4630  138.3320  153.3920 C   0  0  0  0  0  3  0  0  0  0  0  0
  140.1510  138.2420  154.5420 C   0  0  0  0  0  3  0  0  0  0  0  0
  138.0680  137.7970  153.2260 C   0  0  0  0  0  2  0  0  0  0  0  0
  137.4710  137.3060  154.5470 C   0  0  0  0  0  2  0  0  0  0  0  0
  134.8910  134.5950  155.2740 C   0  0  0  0  0  0  0  0  0  0  0  0
  135.8010  135.6430  155.4450 C   0  0  0  0  0  3  0  0  0  0  0  0
  136.4790  136.1910  154.3450 C   0  0  0  0  0  0  0  0  0  0  0  0
  136.2230  135.6970  153.0620 C   0  0  0  0  0  3  0  0  0  0  0  0
  135.3200  134.6500  152.8770 C   0  0  0  0  0  3  0  0  0  0  0  0
  134.6650  134.1050  153.9800 C   0  0  0  0  0  0  0  0  0  0  0  0
  134.1540  134.6600  157.5390 C   0  0  0  0  0  1  0  0  0  0  0  0
  134.1930  133.9920  156.2860 O   0  0  0  0  0  0  0  0  0  0  0  0
  133.7850  133.0700  153.8000 O   0  0  0  0  0  0  0  0  0  0  0  0
  133.2480  133.0390  153.0320 H   0  0  0  0  0  0  0  0  0  0  0  0
  141.7980  138.8540  156.1240 O   0  0  0  0  0  0  0  0  0  0  0  0
  142.7530  138.9240  156.2860 H   0  0  0  0  0  0  0  0  0  0  0  0
  142.5670  137.6990  154.1510 C   0  0  0  0  0  2  0  0  0  0  0  0
  143.3560  138.2840  152.9770 C   0  0  0  0  0  2  0  0  0  0  0  0
  142.5960  138.1990  151.6800 C   0  0  0  0  0  0  0  0  0  0  0  0
  142.4800  136.9800  151.0100 C   0  0  0  0  0  3  0  0  0  0  0  0
  141.7860  136.9090  149.8020 C   0  0  0  0  0  3  0  0  0  0  0  0
  141.1950  138.0540  149.2570 C   0  0  0  0  0  0  0  0  0  0  0  0
  141.2930  139.2840  149.9170 C   0  0  0  0  0  0  0  0  0  0  0  0
  141.9940  139.3380  151.1300 C   0  0  0  0  0  3  0  0  0  0  0  0
  140.5290  137.9290  148.0680 O   0  0  0  0  0  0  0  0  0  0  0  0
  139.9020  138.5770  147.8130 H   0  0  0  0  0  0  0  0  0  0  0  0
  140.7870  140.4990  149.5400 O   0  0  0  0  0  0  0  0  0  0  0  0
  139.4700  140.8330  149.9520 C   0  0  0  0  0  1  0  0  0  0  0  0
  1 18  1  1  0  0  0
  1 16  1  0  0  0  0
  2  3  2  0  0  0  0
  3  1  1  0  0  0  0
  4  2  1  0  0  0  0
  4  5  1  0  0  0  0
  6  7  1  0  0  0  0
  6 13  1  0  0  0  0
  8  5  1  0  0  0  0
  8  7  2  0  0  0  0
  9  8  1  0  0  0  0
 10  9  2  0  0  0  0
 10 11  1  0  0  0  0
 11  6  2  0  0  0  0
 13 12  1  0  0  0  0
 14 11  1  0  0  0  0
 15 14  1  0  0  0  0
 16 17  1  0  0  0  0
 19 18  1  0  0  0  0
 20 19  1  0  0  0  0
 21 20  2  0  0  0  0
 22 21  1  0  0  0  0
 23 22  2  0  0  0  0
 23 24  1  0  0  0  0
 24 25  2  0  0  0  0
 25 20  1  0  0  0  0
 26 23  1  0  0  0  0
 27 26  1  0  0  0  0
 28 24  1  0  0  0  0
 28 29  1  0  0  0  0
M  END
>  <MODEL>
2

>  <REMARK>
 VINA RESULT:    -6.982      2.724      4.618
 INTER + INTRA:         -12.324
 INTER:                 -11.001
 INTRA:                  -1.323
 UNBOUND:                -1.057
  Name = CHEMBL1088457
  14 active torsions:
  status: ('A' for Active; 'I' for Inactive)
    1  A    between atoms: C_1  and  O_2
    2  A    between atoms: O_2  and  C_3
    3  A    between atoms: C_5  and  C_6
    4  A    between atoms: C_6  and  C_7
    5  A    between atoms: C_7  and  C_8
    6  A    between atoms: C_9  and  C_10
    7  A    between atoms: C_10  and  O_11
    8  A    between atoms: C_10  and  C_12
    9  A    between atoms: C_12  and  C_13
   10  A    between atoms: C_13  and  C_14
   11  A    between atoms: C_17  and  O_18
   12  A    between atoms: C_19  and  O_20
   13  A    between atoms: O_20  and  C_21
   14  A    between atoms: C_25  and  O_26
                            x       y       z     vdW  Elec       q    Type
                         _______ _______ _______ _____ _____    ______ ____

>  <TORSDO>
F 12

>  <SCORE>
-6.982

>  <RMSD_LB>
2.724

>  <RMSD_UB>
4.618

$$$$
CHEMBL1088457
 OpenBabel10162523413D

 29 30  0  0  1  0  0  0  0  0999 V2000
  141.4540  139.0040  153.8730 C   0  0  1  0  0  3  0  0  0  0  0  0
  139.4510  138.2480  155.2000 C   0  0  0  0  0  3  0  0  0  0  0  0
  140.2200  138.1820  154.1000 C   0  0  0  0  0  3  0  0  0  0  0  0
  138.1850  137.4550  155.3640 C   0  0  0  0  0  2  0  0  0  0  0  0
  138.1700  136.6420  156.6610 C   0  0  0  0  0  2  0  0  0  0  0  0
  134.7860  135.0310  155.9600 C   0  0  0  0  0  0  0  0  0  0  0  0
  136.0100  135.6840  155.7790 C   0  0  0  0  0  3  0  0  0  0  0  0
  136.8640  135.9190  156.8670 C   0  0  0  0  0  0  0  0  0  0  0  0
  136.4970  135.4740  158.1410 C   0  0  0  0  0  3  0  0  0  0  0  0
  135.2790  134.8240  158.3360 C   0  0  0  0  0  3  0  0  0  0  0  0
  134.4330  134.6100  157.2490 C   0  0  0  0  0  0  0  0  0  0  0  0
  133.9960  135.5280  153.7670 C   0  0  0  0  0  1  0  0  0  0  0  0
  133.8850  134.7680  154.9620 O   0  0  0  0  0  0  0  0  0  0  0  0
  133.2310  133.9800  157.4420 O   0  0  0  0  0  0  0  0  0  0  0  0
  132.4770  134.2510  156.9550 H   0  0  0  0  0  0  0  0  0  0  0  0
  141.6210  139.8650  154.9940 O   0  0  0  0  0  0  0  0  0  0  0  0
  140.8330  140.4230  155.0930 H   0  0  0  0  0  0  0  0  0  0  0  0
  142.6980  138.1220  153.7220 C   0  0  0  0  0  2  0  0  0  0  0  0
  143.0590  137.8850  152.2530 C   0  0  0  0  0  2  0  0  0  0  0  0
  143.7430  139.0740  151.6340 C   0  0  0  0  0  0  0  0  0  0  0  0
  143.6420  139.3100  150.2620 C   0  0  0  0  0  3  0  0  0  0  0  0
  144.2880  140.4060  149.6910 C   0  0  0  0  0  3  0  0  0  0  0  0
  145.0350  141.2810  150.4870 C   0  0  0  0  0  0  0  0  0  0  0  0
  145.1410  141.0680  151.8660 C   0  0  0  0  0  0  0  0  0  0  0  0
  144.4850  139.9620  152.4240 C   0  0  0  0  0  3  0  0  0  0  0  0
  145.6510  142.3390  149.8750 O   0  0  0  0  0  0  0  0  0  0  0  0
  146.2450  142.8780  150.3590 H   0  0  0  0  0  0  0  0  0  0  0  0
  145.8210  141.8080  152.7960 O   0  0  0  0  0  0  0  0  0  0  0  0
  146.4510  141.1220  153.8680 C   0  0  0  0  0  1  0  0  0  0  0  0
  1 18  1  1  0  0  0
  1  3  1  0  0  0  0
  1 16  1  0  0  0  0
  2  4  1  0  0  0  0
  3  2  2  0  0  0  0
  4  5  1  0  0  0  0
  5  8  1  0  0  0  0
  6 11  1  0  0  0  0
  7  6  2  0  0  0  0
  7  8  1  0  0  0  0
  8  9  2  0  0  0  0
  9 10  1  0  0  0  0
 11 14  1  0  0  0  0
 11 10  2  0  0  0  0
 12 13  1  0  0  0  0
 13  6  1  0  0  0  0
 15 14  1  0  0  0  0
 16 17  1  0  0  0  0
 19 18  1  0  0  0  0
 20 19  1  0  0  0  0
 20 25  1  0  0  0  0
 21 20  2  0  0  0  0
 22 21  1  0  0  0  0
 22 23  2  0  0  0  0
 23 24  1  0  0  0  0
 24 25  2  0  0  0  0
 24 28  1  0  0  0  0
 26 27  1  0  0  0  0
 26 23  1  0  0  0  0
 28 29  1  0  0  0  0
M  END
>  <MODEL>
3

>  <REMARK>
 VINA RESULT:    -6.893      2.096      2.646
 INTER + INTRA:         -12.181
 INTER:                 -11.557
 INTRA:                  -0.624
 UNBOUND:                -1.057
  Name = CHEMBL1088457
  14 active torsions:
  status: ('A' for Active; 'I' for Inactive)
    1  A    between atoms: C_1  and  O_2
    2  A    between atoms: O_2  and  C_3
    3  A    between atoms: C_5  and  C_6
    4  A    between atoms: C_6  and  C_7
    5  A    between atoms: C_7  and  C_8
    6  A    between atoms: C_9  and  C_10
    7  A    between atoms: C_10  and  O_11
    8  A    between atoms: C_10  and  C_12
    9  A    between atoms: C_12  and  C_13
   10  A    between atoms: C_13  and  C_14
   11  A    between atoms: C_17  and  O_18
   12  A    between atoms: C_19  and  O_20
   13  A    between atoms: O_20  and  C_21
   14  A    between atoms: C_25  and  O_26
                            x       y       z     vdW  Elec       q    Type
                         _______ _______ _______ _____ _____    ______ ____

>  <TORSDO>
F 12

>  <SCORE>
-6.893

>  <RMSD_LB>
2.096

>  <RMSD_UB>
2.646

$$$$
CHEMBL1088457
 OpenBabel10162523413D

 29 30  0  0  1  0  0  0  0  0999 V2000
  145.0780  140.8150  150.7090 C   0  0  1  0  0  3  0  0  0  0  0  0
  143.5150  139.7490  152.3710 C   0  0  0  0  0  3  0  0  0  0  0  0
  144.0950  139.7770  151.1600 C   0  0  0  0  0  3  0  0  0  0  0  0
  142.4840  138.7280  152.7640 C   0  0  0  0  0  2  0  0  0  0  0  0
  142.6150  137.4300  151.9640 C   0  0  0  0  0  2  0  0  0  0  0  0
  139.0380  137.3490  150.6440 C   0  0  0  0  0  0  0  0  0  0  0  0
  140.1460  137.5770  151.4670 C   0  0  0  0  0  3  0  0  0  0  0  0
  141.4330  137.1970  151.0580 C   0  0  0  0  0  0  0  0  0  0  0  0
  141.6120  136.6060  149.8030 C   0  0  0  0  0  3  0  0  0  0  0  0
  140.5160  136.3710  148.9730 C   0  0  0  0  0  3  0  0  0  0  0  0
  139.2410  136.7390  149.3980 C   0  0  0  0  0  0  0  0  0  0  0  0
  137.0220  136.7550  151.7670 C   0  0  0  0  0  1  0  0  0  0  0  0
  137.7470  137.6750  150.9630 O   0  0  0  0  0  0  0  0  0  0  0  0
  138.1620  136.5000  148.5870 O   0  0  0  0  0  0  0  0  0  0  0  0
  137.6450  135.7280  148.7120 H   0  0  0  0  0  0  0  0  0  0  0  0
  145.1570  141.8130  151.7210 O   0  0  0  0  0  0  0  0  0  0  0  0
  146.0890  142.0210  151.8970 H   0  0  0  0  0  0  0  0  0  0  0  0
  146.4690  140.2130  150.4820 C   0  0  0  0  0  2  0  0  0  0  0  0
  146.5690  138.7810  151.0140 C   0  0  0  0  0  2  0  0  0  0  0  0
  146.9650  138.7380  152.4660 C   0  0  0  0  0  0  0  0  0  0  0  0
  146.5320  137.6940  153.2840 C   0  0  0  0  0  3  0  0  0  0  0  0
  146.8920  137.6650  154.6310 C   0  0  0  0  0  3  0  0  0  0  0  0
  147.6950  138.6760  155.1710 C   0  0  0  0  0  0  0  0  0  0  0  0
  148.1470  139.7270  154.3660 C   0  0  0  0  0  0  0  0  0  0  0  0
  147.7770  139.7400  153.0130 C   0  0  0  0  0  3  0  0  0  0  0  0
  148.0160  138.6010  156.4990 O   0  0  0  0  0  0  0  0  0  0  0  0
  147.5250  139.0920  157.1270 H   0  0  0  0  0  0  0  0  0  0  0  0
  148.9310  140.7950  154.7140 O   0  0  0  0  0  0  0  0  0  0  0  0
  148.9530  141.9200  153.8470 C   0  0  0  0  0  1  0  0  0  0  0  0
  1 18  1  1  0  0  0
  1  3  1  0  0  0  0
  1 16  1  0  0  0  0
  2  4  1  0  0  0  0
  3  2  2  0  0  0  0
  5  4  1  0  0  0  0
  6 13  1  0  0  0  0
  6  7  1  0  0  0  0
  8  7  2  0  0  0  0
  8  5  1  0  0  0  0
  9  8  1  0  0  0  0
 10 11  1  0  0  0  0
 10  9  2  0  0  0  0
 11  6  2  0  0  0  0
 13 12  1  0  0  0  0
 14 15  1  0  0  0  0
 14 11  1  0  0  0  0
 16 17  1  0  0  0  0
 18 19  1  0  0  0  0
 19 20  1  0  0  0  0
 20 25  2  0  0  0  0
 20 21  1  0  0  0  0
 21 22  2  0  0  0  0
 22 23  1  0  0  0  0
 23 26  1  0  0  0  0
 24 28  1  0  0  0  0
 24 23  2  0  0  0  0
 25 24  1  0  0  0  0
 26 27  1  0  0  0  0
 29 28  1  0  0  0  0
M  END
>  <MODEL>
4

>  <REMARK>
 VINA RESULT:    -6.603      3.999      5.740
 INTER + INTRA:         -11.713
 INTER:                 -10.342
 INTRA:                  -1.371
 UNBOUND:                -1.057
  Name = CHEMBL1088457
  14 active torsions:
  status: ('A' for Active; 'I' for Inactive)
    1  A    between atoms: C_1  and  O_2
    2  A    between atoms: O_2  and  C_3
    3  A    between atoms: C_5  and  C_6
    4  A    between atoms: C_6  and  C_7
    5  A    between atoms: C_7  and  C_8
    6  A    between atoms: C_9  and  C_10
    7  A    between atoms: C_10  and  O_11
    8  A    between atoms: C_10  and  C_12
    9  A    between atoms: C_12  and  C_13
   10  A    between atoms: C_13  and  C_14
   11  A    between atoms: C_17  and  O_18
   12  A    between atoms: C_19  and  O_20
   13  A    between atoms: O_20  and  C_21
   14  A    between atoms: C_25  and  O_26
                            x       y       z     vdW  Elec       q    Type
                         _______ _______ _______ _____ _____    ______ ____

>  <TORSDO>
F 12

>  <SCORE>
-6.603

>  <RMSD_LB>
3.999

>  <RMSD_UB>
5.740

$$$$
CHEMBL1088457
 OpenBabel10162523413D

 29 30  0  0  1  0  0  0  0  0999 V2000
  146.1630  138.1850  148.8860 C   0  0  1  0  0  3  0  0  0  0  0  0
  144.4050  136.8560  150.1050 C   0  0  0  0  0  3  0  0  0  0  0  0
  144.8240  137.9980  149.5330 C   0  0  0  0  0  3  0  0  0  0  0  0
  143.0800  136.7260  150.8030 C   0  0  0  0  0  2  0  0  0  0  0  0
  143.0300  137.5170  152.1120 C   0  0  0  0  0  2  0  0  0  0  0  0
  139.2300  137.8220  152.1610 C   0  0  0  0  0  0  0  0  0  0  0  0
  140.5410  137.6260  151.7160 C   0  0  0  0  0  3  0  0  0  0  0  0
  141.6210  137.7100  152.6090 C   0  0  0  0  0  0  0  0  0  0  0  0
  141.3790  137.9690  153.9620 C   0  0  0  0  0  3  0  0  0  0  0  0
  140.0760  138.1690  154.4180 C   0  0  0  0  0  3  0  0  0  0  0  0
  139.0140  138.0980  153.5170 C   0  0  0  0  0  0  0  0  0  0  0  0
  137.9890  136.6530  150.4950 C   0  0  0  0  0  1  0  0  0  0  0  0
  138.1180  137.7700  151.3620 O   0  0  0  0  0  0  0  0  0  0  0  0
  137.7340  138.3030  153.9630 O   0  0  0  0  0  0  0  0  0  0  0  0
  137.1590  137.5740  154.0880 H   0  0  0  0  0  0  0  0  0  0  0  0
  146.0310  137.8680  147.5050 O   0  0  0  0  0  0  0  0  0  0  0  0
  145.3220  138.4050  147.1160 H   0  0  0  0  0  0  0  0  0  0  0  0
  146.6620  139.6270  149.0290 C   0  0  0  0  0  2  0  0  0  0  0  0
  145.8200  140.4290  150.0250 C   0  0  0  0  0  2  0  0  0  0  0  0
  146.5430  140.6660  151.3240 C   0  0  0  0  0  0  0  0  0  0  0  0
  147.4920  141.6840  151.4280 C   0  0  0  0  0  3  0  0  0  0  0  0
  148.1670  141.8910  152.6300 C   0  0  0  0  0  3  0  0  0  0  0  0
  147.8960  141.0860  153.7420 C   0  0  0  0  0  0  0  0  0  0  0  0
  146.9430  140.0650  153.6610 C   0  0  0  0  0  0  0  0  0  0  0  0
  146.2720  139.8710  152.4460 C   0  0  0  0  0  3  0  0  0  0  0  0
  148.5910  141.3300  154.8950 O   0  0  0  0  0  0  0  0  0  0  0  0
  148.3780  142.0760  155.4210 H   0  0  0  0  0  0  0  0  0  0  0  0
  146.5490  139.1850  154.6330 O   0  0  0  0  0  0  0  0  0  0  0  0
  145.1620  139.0820  154.9220 C   0  0  0  0  0  1  0  0  0  0  0  0
  1 18  1  6  0  0  0
  1  3  1  0  0  0  0
  2  4  1  0  0  0  0
  3  2  2  0  0  0  0
  4  5  1  0  0  0  0
  5  8  1  0  0  0  0
  6 11  1  0  0  0  0
  7  6  2  0  0  0  0
  7  8  1  0  0  0  0
  8  9  2  0  0  0  0
  9 10  1  0  0  0  0
 11 14  1  0  0  0  0
 11 10  2  0  0  0  0
 12 13  1  0  0  0  0
 13  6  1  0  0  0  0
 14 15  1  0  0  0  0
 16  1  1  0  0  0  0
 17 16  1  0  0  0  0
 18 19  1  0  0  0  0
 19 20  1  0  0  0  0
 20 21  2  0  0  0  0
 20 25  1  0  0  0  0
 21 22  1  0  0  0  0
 22 23  2  0  0  0  0
 23 26  1  0  0  0  0
 24 23  1  0  0  0  0
 24 28  1  0  0  0  0
 25 24  2  0  0  0  0
 26 27  1  0  0  0  0
 28 29  1  0  0  0  0
M  END
>  <MODEL>
5

>  <REMARK>
 VINA RESULT:    -6.580      3.689      5.698
 INTER + INTRA:         -11.676
 INTER:                 -10.330
 INTRA:                  -1.346
 UNBOUND:                -1.057
  Name = CHEMBL1088457
  14 active torsions:
  status: ('A' for Active; 'I' for Inactive)
    1  A    between atoms: C_1  and  O_2
    2  A    between atoms: O_2  and  C_3
    3  A    between atoms: C_5  and  C_6
    4  A    between atoms: C_6  and  C_7
    5  A    between atoms: C_7  and  C_8
    6  A    between atoms: C_9  and  C_10
    7  A    between atoms: C_10  and  O_11
    8  A    between atoms: C_10  and  C_12
    9  A    between atoms: C_12  and  C_13
   10  A    between atoms: C_13  and  C_14
   11  A    between atoms: C_17  and  O_18
   12  A    between atoms: C_19  and  O_20
   13  A    between atoms: O_20  and  C_21
   14  A    between atoms: C_25  and  O_26
                            x       y       z     vdW  Elec       q    Type
                         _______ _______ _______ _____ _____    ______ ____

>  <TORSDO>
F 12

>  <SCORE>
-6.580

>  <RMSD_LB>
3.689

>  <RMSD_UB>
5.698

$$$$
CHEMBL1088457
 OpenBabel10162523413D

 29 30  0  0  1  0  0  0  0  0999 V2000
  139.2920  138.0360  153.2040 C   0  0  1  0  0  3  0  0  0  0  0  0
  138.3520  137.0130  151.1030 C   0  0  0  0  0  3  0  0  0  0  0  0
  138.2220  137.8080  152.1790 C   0  0  0  0  0  3  0  0  0  0  0  0
  137.2340  136.7580  150.1320 C   0  0  0  0  0  2  0  0  0  0  0  0
  136.0200  136.1080  150.7980 C   0  0  0  0  0  2  0  0  0  0  0  0
  133.8260  135.2670  147.7950 C   0  0  0  0  0  0  0  0  0  0  0  0
  134.6240  135.9730  148.7020 C   0  0  0  0  0  3  0  0  0  0  0  0
  135.1790  135.3310  149.8190 C   0  0  0  0  0  0  0  0  0  0  0  0
  134.9510  133.9650  150.0140 C   0  0  0  0  0  3  0  0  0  0  0  0
  134.1550  133.2490  149.1190 C   0  0  0  0  0  3  0  0  0  0  0  0
  133.5980  133.9030  148.0210 C   0  0  0  0  0  0  0  0  0  0  0  0
  132.7600  137.1460  146.7880 C   0  0  0  0  0  1  0  0  0  0  0  0
  133.2350  135.8110  146.6850 O   0  0  0  0  0  0  0  0  0  0  0  0
  132.8080  133.2030  147.1460 O   0  0  0  0  0  0  0  0  0  0  0  0
  132.5840  132.3110  147.3290 H   0  0  0  0  0  0  0  0  0  0  0  0
  139.7980  139.3540  153.0250 O   0  0  0  0  0  0  0  0  0  0  0  0
  139.1780  139.8670  152.4820 H   0  0  0  0  0  0  0  0  0  0  0  0
  138.7480  137.8920  154.6290 C   0  0  0  0  0  2  0  0  0  0  0  0
  137.3590  137.2480  154.6500 C   0  0  0  0  0  2  0  0  0  0  0  0
  136.9060  136.9120  156.0460 C   0  0  0  0  0  0  0  0  0  0  0  0
  136.2330  135.7160  156.3010 C   0  0  0  0  0  3  0  0  0  0  0  0
  135.8050  135.4160  157.5940 C   0  0  0  0  0  3  0  0  0  0  0  0
  136.0520  136.3050  158.6460 C   0  0  0  0  0  0  0  0  0  0  0  0
  136.7310  137.5050  158.4130 C   0  0  0  0  0  0  0  0  0  0  0  0
  137.1560  137.7920  157.1080 C   0  0  0  0  0  3  0  0  0  0  0  0
  135.6070  135.9630  159.8930 O   0  0  0  0  0  0  0  0  0  0  0  0
  134.7180  135.6910  160.0150 H   0  0  0  0  0  0  0  0  0  0  0  0
  137.0590  138.4900  159.3070 O   0  0  0  0  0  0  0  0  0  0  0  0
  138.0940  138.2260  160.2440 C   0  0  0  0  0  1  0  0  0  0  0  0
  1  3  1  6  0  0  0
  1 18  1  0  0  0  0
  2  3  2  0  0  0  0
  4  5  1  0  0  0  0
  4  2  1  0  0  0  0
  6 11  2  0  0  0  0
  6  7  1  0  0  0  0
  7  8  2  0  0  0  0
  8  9  1  0  0  0  0
  8  5  1  0  0  0  0
 10  9  2  0  0  0  0
 11 10  1  0  0  0  0
 13 12  1  0  0  0  0
 13  6  1  0  0  0  0
 14 15  1  0  0  0  0
 14 11  1  0  0  0  0
 16  1  1  0  0  0  0
 17 16  1  0  0  0  0
 18 19  1  0  0  0  0
 19 20  1  0  0  0  0
 20 21  2  0  0  0  0
 20 25  1  0  0  0  0
 21 22  1  0  0  0  0
 22 23  2  0  0  0  0
 23 26  1  0  0  0  0
 24 23  1  0  0  0  0
 24 28  1  0  0  0  0
 25 24  2  0  0  0  0
 26 27  1  0  0  0  0
 28 29  1  0  0  0  0
M  END
>  <MODEL>
6

>  <REMARK>
 VINA RESULT:    -6.556      4.659      8.368
 INTER + INTRA:         -11.636
 INTER:                 -10.814
 INTRA:                  -0.822
 UNBOUND:                -1.057
  Name = CHEMBL1088457
  14 active torsions:
  status: ('A' for Active; 'I' for Inactive)
    1  A    between atoms: C_1  and  O_2
    2  A    between atoms: O_2  and  C_3
    3  A    between atoms: C_5  and  C_6
    4  A    between atoms: C_6  and  C_7
    5  A    between atoms: C_7  and  C_8
    6  A    between atoms: C_9  and  C_10
    7  A    between atoms: C_10  and  O_11
    8  A    between atoms: C_10  and  C_12
    9  A    between atoms: C_12  and  C_13
   10  A    between atoms: C_13  and  C_14
   11  A    between atoms: C_17  and  O_18
   12  A    between atoms: C_19  and  O_20
   13  A    between atoms: O_20  and  C_21
   14  A    between atoms: C_25  and  O_26
                            x       y       z     vdW  Elec       q    Type
                         _______ _______ _______ _____ _____    ______ ____

>  <TORSDO>
F 12

>  <SCORE>
-6.556

>  <RMSD_LB>
4.659

>  <RMSD_UB>
8.368

$$$$
CHEMBL1088457
 OpenBabel10162523413D

 29 30  0  0  1  0  0  0  0  0999 V2000
  141.6540  137.7690  153.2310 C   0  0  1  0  0  3  0  0  0  0  0  0
  143.0440  139.4200  151.9330 C   0  0  0  0  0  3  0  0  0  0  0  0
  142.7350  138.1560  152.2670 C   0  0  0  0  0  3  0  0  0  0  0  0
  144.1780  139.7720  151.0110 C   0  0  0  0  0  2  0  0  0  0  0  0
  144.7730  141.1480  151.3180 C   0  0  0  0  0  2  0  0  0  0  0  0
  147.0420  139.8870  154.1120 C   0  0  0  0  0  0  0  0  0  0  0  0
  146.0150  139.9600  153.1650 C   0  0  0  0  0  3  0  0  0  0  0  0
  145.8970  141.0740  152.3200 C   0  0  0  0  0  0  0  0  0  0  0  0
  146.8310  142.1110  152.4100 C   0  0  0  0  0  3  0  0  0  0  0  0
  147.8590  142.0520  153.3510 C   0  0  0  0  0  3  0  0  0  0  0  0
  147.9550  140.9470  154.1950 C   0  0  0  0  0  0  0  0  0  0  0  0
  146.7000  137.5830  154.6130 C   0  0  0  0  0  1  0  0  0  0  0  0
  147.2290  138.8480  154.9840 O   0  0  0  0  0  0  0  0  0  0  0  0
  148.9590  140.8930  155.1270 O   0  0  0  0  0  0  0  0  0  0  0  0
  149.8540  140.9600  154.8550 H   0  0  0  0  0  0  0  0  0  0  0  0
  142.1890  137.8540  154.5470 O   0  0  0  0  0  0  0  0  0  0  0  0
  143.1490  137.7150  154.5150 H   0  0  0  0  0  0  0  0  0  0  0  0
  140.4400  138.6970  153.1180 C   0  0  0  0  0  2  0  0  0  0  0  0
  139.4820  138.2560  152.0090 C   0  0  0  0  0  2  0  0  0  0  0  0
  138.2900  137.5090  152.5460 C   0  0  0  0  0  0  0  0  0  0  0  0
  137.3770  136.9150  151.6730 C   0  0  0  0  0  3  0  0  0  0  0  0
  136.2680  136.2360  152.1760 C   0  0  0  0  0  3  0  0  0  0  0  0
  136.0650  136.1380  153.5570 C   0  0  0  0  0  0  0  0  0  0  0  0
  136.9720  136.7190  154.4500 C   0  0  0  0  0  0  0  0  0  0  0  0
  138.0820  137.3970  153.9280 C   0  0  0  0  0  3  0  0  0  0  0  0
  134.9590  135.4630  153.9970 O   0  0  0  0  0  0  0  0  0  0  0  0
  134.9120  135.1710  154.8860 H   0  0  0  0  0  0  0  0  0  0  0  0
  136.9380  136.7280  155.8190 O   0  0  0  0  0  0  0  0  0  0  0  0
  137.1130  137.9700  156.4850 C   0  0  0  0  0  1  0  0  0  0  0  0
  1  3  1  6  0  0  0
  1 16  1  0  0  0  0
  2  3  2  0  0  0  0
  4  5  1  0  0  0  0
  4  2  1  0  0  0  0
  5  8  1  0  0  0  0
  6 11  1  0  0  0  0
  6 13  1  0  0  0  0
  7  6  2  0  0  0  0
  8  9  2  0  0  0  0
  8  7  1  0  0  0  0
  9 10  1  0  0  0  0
 10 11  2  0  0  0  0
 11 14  1  0  0  0  0
 12 13  1  0  0  0  0
 15 14  1  0  0  0  0
 17 16  1  0  0  0  0
 18  1  1  0  0  0  0
 19 20  1  0  0  0  0
 19 18  1  0  0  0  0
 20 25  1  0  0  0  0
 21 22  1  0  0  0  0
 21 20  2  0  0  0  0
 22 23  2  0  0  0  0
 23 26  1  0  0  0  0
 23 24  1  0  0  0  0
 24 28  1  0  0  0  0
 25 24  2  0  0  0  0
 26 27  1  0  0  0  0
 28 29  1  0  0  0  0
M  END
>  <MODEL>
7

>  <REMARK>
 VINA RESULT:    -6.353      2.156     10.406
 INTER + INTRA:         -11.309
 INTER:                 -10.661
 INTRA:                  -0.648
 UNBOUND:                -1.057
  Name = CHEMBL1088457
  14 active torsions:
  status: ('A' for Active; 'I' for Inactive)
    1  A    between atoms: C_1  and  O_2
    2  A    between atoms: O_2  and  C_3
    3  A    between atoms: C_5  and  C_6
    4  A    between atoms: C_6  and  C_7
    5  A    between atoms: C_7  and  C_8
    6  A    between atoms: C_9  and  C_10
    7  A    between atoms: C_10  and  O_11
    8  A    between atoms: C_10  and  C_12
    9  A    between atoms: C_12  and  C_13
   10  A    between atoms: C_13  and  C_14
   11  A    between atoms: C_17  and  O_18
   12  A    between atoms: C_19  and  O_20
   13  A    between atoms: O_20  and  C_21
   14  A    between atoms: C_25  and  O_26
                            x       y       z     vdW  Elec       q    Type
                         _______ _______ _______ _____ _____    ______ ____

>  <TORSDO>
F 12

>  <SCORE>
-6.353

>  <RMSD_LB>
2.156

>  <RMSD_UB>
10.406

$$$$
CHEMBL1088457
 OpenBabel10162523413D

 29 30  0  0  1  0  0  0  0  0999 V2000
  145.2010  141.4060  151.1780 C   0  0  1  0  0  3  0  0  0  0  0  0
  145.3080  139.6540  152.9840 C   0  0  0  0  0  3  0  0  0  0  0  0
  144.6010  140.4330  152.1480 C   0  0  0  0  0  3  0  0  0  0  0  0
  144.6690  138.7370  153.9890 C   0  0  0  0  0  2  0  0  0  0  0  0
  143.9880  137.5340  153.3310 C   0  0  0  0  0  2  0  0  0  0  0  0
  140.3490  138.5140  153.9110 C   0  0  0  0  0  0  0  0  0  0  0  0
  141.7180  138.3090  154.1110 C   0  0  0  0  0  3  0  0  0  0  0  0
  142.5190  137.7690  153.0930 C   0  0  0  0  0  0  0  0  0  0  0  0
  141.9450  137.4560  151.8570 C   0  0  0  0  0  3  0  0  0  0  0  0
  140.5810  137.6540  151.6440 C   0  0  0  0  0  3  0  0  0  0  0  0
  139.7940  138.1770  152.6690 C   0  0  0  0  0  0  0  0  0  0  0  0
  139.0450  138.1440  155.8710 C   0  0  0  0  0  1  0  0  0  0  0  0
  139.4890  139.0240  154.8470 O   0  0  0  0  0  0  0  0  0  0  0  0
  138.4520  138.3620  152.4640 O   0  0  0  0  0  0  0  0  0  0  0  0
  138.0180  139.1030  152.8420 H   0  0  0  0  0  0  0  0  0  0  0  0
  146.4500  141.8370  151.7050 O   0  0  0  0  0  0  0  0  0  0  0  0
  147.1130  141.1390  151.5780 H   0  0  0  0  0  0  0  0  0  0  0  0
  145.4250  140.7650  149.8040 C   0  0  0  0  0  2  0  0  0  0  0  0
  144.4230  139.6420  149.5230 C   0  0  0  0  0  2  0  0  0  0  0  0
  145.0820  138.2890  149.4680 C   0  0  0  0  0  0  0  0  0  0  0  0
  146.4290  138.1470  149.8030 C   0  0  0  0  0  3  0  0  0  0  0  0
  147.0380  136.8940  149.7390 C   0  0  0  0  0  3  0  0  0  0  0  0
  146.3030  135.7700  149.3450 C   0  0  0  0  0  0  0  0  0  0  0  0
  144.9490  135.8890  149.0140 C   0  0  0  0  0  0  0  0  0  0  0  0
  144.3530  137.1560  149.0850 C   0  0  0  0  0  3  0  0  0  0  0  0
  146.9500  134.5650  149.2960 O   0  0  0  0  0  0  0  0  0  0  0  0
  146.6380  133.8450  149.8070 H   0  0  0  0  0  0  0  0  0  0  0  0
  144.0790  134.9120  148.6100 O   0  0  0  0  0  0  0  0  0  0  0  0
  142.6900  135.2090  148.6160 C   0  0  0  0  0  1  0  0  0  0  0  0
  1 18  1  6  0  0  0
  1 16  1  0  0  0  0
  1  3  1  0  0  0  0
  2  4  1  0  0  0  0
  3  2  2  0  0  0  0
  5  4  1  0  0  0  0
  6  7  1  0  0  0  0
  6 13  1  0  0  0  0
  8  5  1  0  0  0  0
  8  7  2  0  0  0  0
  9  8  1  0  0  0  0
 10  9  2  0  0  0  0
 10 11  1  0  0  0  0
 11  6  2  0  0  0  0
 13 12  1  0  0  0  0
 14 11  1  0  0  0  0
 14 15  1  0  0  0  0
 17 16  1  0  0  0  0
 19 18  1  0  0  0  0
 20 19  1  0  0  0  0
 20 21  1  0  0  0  0
 22 21  2  0  0  0  0
 23 22  1  0  0  0  0
 24 25  1  0  0  0  0
 24 23  2  0  0  0  0
 25 20  2  0  0  0  0
 26 23  1  0  0  0  0
 26 27  1  0  0  0  0
 28 29  1  0  0  0  0
 28 24  1  0  0  0  0
M  END
>  <MODEL>
8

>  <REMARK>
 VINA RESULT:    -6.304      3.739      6.626
 INTER + INTRA:         -11.230
 INTER:                  -9.126
 INTRA:                  -2.105
 UNBOUND:                -1.057
  Name = CHEMBL1088457
  14 active torsions:
  status: ('A' for Active; 'I' for Inactive)
    1  A    between atoms: C_1  and  O_2
    2  A    between atoms: O_2  and  C_3
    3  A    between atoms: C_5  and  C_6
    4  A    between atoms: C_6  and  C_7
    5  A    between atoms: C_7  and  C_8
    6  A    between atoms: C_9  and  C_10
    7  A    between atoms: C_10  and  O_11
    8  A    between atoms: C_10  and  C_12
    9  A    between atoms: C_12  and  C_13
   10  A    between atoms: C_13  and  C_14
   11  A    between atoms: C_17  and  O_18
   12  A    between atoms: C_19  and  O_20
   13  A    between atoms: O_20  and  C_21
   14  A    between atoms: C_25  and  O_26
                            x       y       z     vdW  Elec       q    Type
                         _______ _______ _______ _____ _____    ______ ____

>  <TORSDO>
F 12

>  <SCORE>
-6.304

>  <RMSD_LB>
3.739

>  <RMSD_UB>
6.626

$$$$
CHEMBL1088457
 OpenBabel10162523413D

 29 30  0  0  1  0  0  0  0  0999 V2000
  138.0490  137.7860  151.9050 C   0  0  1  0  0  3  0  0  0  0  0  0
  136.4680  135.9410  152.5660 C   0  0  0  0  0  3  0  0  0  0  0  0
  137.1030  136.6580  151.6240 C   0  0  0  0  0  3  0  0  0  0  0  0
  135.4770  134.8580  152.2440 C   0  0  0  0  0  2  0  0  0  0  0  0
  134.4170  135.3180  151.2400 C   0  0  0  0  0  2  0  0  0  0  0  0
  134.9520  134.4980  147.5550 C   0  0  0  0  0  0  0  0  0  0  0  0
  134.9010  135.1930  148.7670 C   0  0  0  0  0  3  0  0  0  0  0  0
  134.4860  134.5520  149.9450 C   0  0  0  0  0  0  0  0  0  0  0  0
  134.1440  133.1960  149.9080 C   0  0  0  0  0  3  0  0  0  0  0  0
  134.1880  132.4910  148.7050 C   0  0  0  0  0  3  0  0  0  0  0  0
  134.5870  133.1450  147.5400 C   0  0  0  0  0  0  0  0  0  0  0  0
  136.6340  135.6080  146.2820 C   0  0  0  0  0  1  0  0  0  0  0  0
  135.3330  135.0420  146.3570 O   0  0  0  0  0  0  0  0  0  0  0  0
  134.6220  132.4560  146.3560 O   0  0  0  0  0  0  0  0  0  0  0  0
  133.9310  132.5640  145.7310 H   0  0  0  0  0  0  0  0  0  0  0  0
  137.9480  138.1090  153.2870 O   0  0  0  0  0  0  0  0  0  0  0  0
  137.4470  138.9340  153.3910 H   0  0  0  0  0  0  0  0  0  0  0  0
  139.4970  137.4030  151.5790 C   0  0  0  0  0  2  0  0  0  0  0  0
  139.7360  137.2940  150.0710 C   0  0  0  0  0  2  0  0  0  0  0  0
  141.0450  136.6240  149.7470 C   0  0  0  0  0  0  0  0  0  0  0  0
  141.1080  135.6410  148.7590 C   0  0  0  0  0  3  0  0  0  0  0  0
  142.3200  135.0140  148.4710 C   0  0  0  0  0  3  0  0  0  0  0  0
  143.4830  135.3700  149.1640 C   0  0  0  0  0  0  0  0  0  0  0  0
  143.4420  136.3590  150.1530 C   0  0  0  0  0  0  0  0  0  0  0  0
  142.2160  136.9800  150.4290 C   0  0  0  0  0  3  0  0  0  0  0  0
  144.6440  134.7220  148.8450 O   0  0  0  0  0  0  0  0  0  0  0  0
  145.3810  134.7690  149.4230 H   0  0  0  0  0  0  0  0  0  0  0  0
  144.4660  136.8340  150.9290 O   0  0  0  0  0  0  0  0  0  0  0  0
  145.1460  138.0030  150.4980 C   0  0  0  0  0  1  0  0  0  0  0  0
  1 18  1  1  0  0  0
  1 16  1  0  0  0  0
  3  1  1  0  0  0  0
  3  2  2  0  0  0  0
  4  2  1  0  0  0  0
  5  4  1  0  0  0  0
  6  7  1  0  0  0  0
  7  8  2  0  0  0  0
  8  5  1  0  0  0  0
  9  8  1  0  0  0  0
 10  9  2  0  0  0  0
 11  6  2  0  0  0  0
 11 10  1  0  0  0  0
 12 13  1  0  0  0  0
 13  6  1  0  0  0  0
 14 11  1  0  0  0  0
 15 14  1  0  0  0  0
 16 17  1  0  0  0  0
 19 18  1  0  0  0  0
 20 19  1  0  0  0  0
 20 25  1  0  0  0  0
 21 20  2  0  0  0  0
 22 21  1  0  0  0  0
 22 23  2  0  0  0  0
 23 24  1  0  0  0  0
 24 25  2  0  0  0  0
 24 28  1  0  0  0  0
 26 23  1  0  0  0  0
 26 27  1  0  0  0  0
 29 28  1  0  0  0  0
M  END
>  <MODEL>
9

>  <REMARK>
 VINA RESULT:    -6.210      4.845      6.707
 INTER + INTRA:         -11.078
 INTER:                 -10.021
 INTRA:                  -1.057
 UNBOUND:                -1.057
  Name = CHEMBL1088457
  14 active torsions:
  status: ('A' for Active; 'I' for Inactive)
    1  A    between atoms: C_1  and  O_2
    2  A    between atoms: O_2  and  C_3
    3  A    between atoms: C_5  and  C_6
    4  A    between atoms: C_6  and  C_7
    5  A    between atoms: C_7  and  C_8
    6  A    between atoms: C_9  and  C_10
    7  A    between atoms: C_10  and  O_11
    8  A    between atoms: C_10  and  C_12
    9  A    between atoms: C_12  and  C_13
   10  A    between atoms: C_13  and  C_14
   11  A    between atoms: C_17  and  O_18
   12  A    between atoms: C_19  and  O_20
   13  A    between atoms: O_20  and  C_21
   14  A    between atoms: C_25  and  O_26
                            x       y       z     vdW  Elec       q    Type
                         _______ _______ _______ _____ _____    ______ ____

>  <TORSDO>
F 12

>  <SCORE>
-6.210

>  <RMSD_LB>
4.845

>  <RMSD_UB>
6.707

$$$$
