CHEMBL77060
 OpenBabel10172500053D

 23 23  0  0  0  0  0  0  0  0999 V2000
  148.1150  139.6030  154.2420 C   0  0  0  0  0  0  0  0  0  0  0  0
  148.9400  138.9100  153.6760 O   0  0  0  0  0  0  0  0  0  0  0  0
  146.9230  139.1010  154.7260 N   0  0  0  0  0  0  0  0  0  0  0  0
  146.2920  139.7020  155.1830 H   0  0  0  0  0  0  0  0  0  0  0  0
  148.3190  141.0900  154.4980 C   0  0  0  0  0  2  0  0  0  0  0  0
  147.1410  141.9130  153.9720 C   0  0  0  0  0  2  0  0  0  0  0  0
  147.1360  142.0260  152.4440 C   0  0  0  0  0  2  0  0  0  0  0  0
  145.7090  142.1540  151.9150 C   0  0  0  0  0  2  0  0  0  0  0  0
  145.3260  140.9460  151.0640 C   0  0  0  0  0  2  0  0  0  0  0  0
  146.5350  140.0430  150.8270 C   0  0  0  0  0  2  0  0  0  0  0  0
  145.3510  139.4040  148.7080 C   0  0  0  0  0  1  0  0  0  0  0  0
  146.6950  139.7160  149.3440 C   0  0  0  0  0  2  0  0  0  0  0  0
  146.5930  137.6980  154.5690 C   0  0  0  0  0  2  0  0  0  0  0  0
  145.8250  137.4030  153.2990 C   0  0  0  0  0  0  0  0  0  0  0  0
  144.5120  137.8500  153.1360 C   0  0  0  0  0  3  0  0  0  0  0  0
  143.7760  137.5190  151.9950 C   0  0  0  0  0  3  0  0  0  0  0  0
  144.3110  136.7140  150.9740 C   0  0  0  0  0  0  0  0  0  0  0  0
  145.6520  136.2990  151.0900 C   0  0  0  0  0  0  0  0  0  0  0  0
  146.3820  136.6400  152.2560 C   0  0  0  0  0  3  0  0  0  0  0  0
  143.1470  136.2560  149.6880 S   0  0  0  0  0  0  0  0  0  0  0  0
  143.8290  135.8780  148.5730 H   0  0  0  0  0  0  0  0  0  0  0  0
  146.3960  135.5200  150.2370 O   0  0  0  0  0  0  0  0  0  0  0  0
  147.7970  135.7460  150.1410 C   0  0  0  0  0  1  0  0  0  0  0  0
  1  5  1  0  0  0  0
  1  3  1  0  0  0  0
  2  1  2  0  0  0  0
  3  4  1  0  0  0  0
  6  5  1  0  0  0  0
  7  6  1  0  0  0  0
  8  7  1  0  0  0  0
  9  8  1  0  0  0  0
 10  9  1  0  0  0  0
 11 12  1  0  0  0  0
 12 10  1  0  0  0  0
 13  3  1  0  0  0  0
 14 13  1  0  0  0  0
 15 14  1  0  0  0  0
 16 15  2  0  0  0  0
 17 18  2  0  0  0  0
 17 16  1  0  0  0  0
 18 19  1  0  0  0  0
 19 14  2  0  0  0  0
 20 17  1  0  0  0  0
 21 20  1  0  0  0  0
 22 18  1  0  0  0  0
 23 22  1  0  0  0  0
M  END
>  <MODEL>
1

>  <REMARK>
 VINA RESULT:    -5.959      0.000      0.000
 INTER + INTRA:         -10.466
 INTER:                  -8.379
 INTRA:                  -2.086
 UNBOUND:                -0.849
  Name = CHEMBL77060
  13 active torsions:
  status: ('A' for Active; 'I' for Inactive)
    1  A    between atoms: C_1  and  C_2
    2  A    between atoms: C_2  and  C_3
    3  A    between atoms: C_3  and  C_4
    4  A    between atoms: C_4  and  C_5
    5  A    between atoms: C_5  and  C_6
    6  A    between atoms: C_6  and  C_7
    7  A    between atoms: C_7  and  C_8
    8  A    between atoms: C_8  and  C_9
    9  A    between atoms: N_11  and  C_12
   10  A    between atoms: C_12  and  C_13
   11  A    between atoms: C_16  and  S_17
   12  A    between atoms: C_18  and  O_19
   13  A    between atoms: O_19  and  C_20
                            x       y       z     vdW  Elec       q    Type
                         _______ _______ _______ _____ _____    ______ ____

>  <TORSDO>
F 11

>  <SCORE>
-5.959

>  <RMSD_LB>
0.000

>  <RMSD_UB>
0.000

$$$$
CHEMBL77060
 OpenBabel10172500053D

 23 23  0  0  0  0  0  0  0  0999 V2000
  143.6900  138.8660  153.6410 C   0  0  0  0  0  0  0  0  0  0  0  0
  143.9180  137.7090  153.9390 O   0  0  0  0  0  0  0  0  0  0  0  0
  142.4180  139.4030  153.6510 N   0  0  0  0  0  0  0  0  0  0  0  0
  142.2860  140.3480  153.4080 H   0  0  0  0  0  0  0  0  0  0  0  0
  144.7820  139.8510  153.2490 C   0  0  0  0  0  2  0  0  0  0  0  0
  145.0270  139.8400  151.7380 C   0  0  0  0  0  2  0  0  0  0  0  0
  144.6750  141.1730  151.0730 C   0  0  0  0  0  2  0  0  0  0  0  0
  145.5950  142.2870  151.5710 C   0  0  0  0  0  2  0  0  0  0  0  0
  146.8610  142.3770  150.7230 C   0  0  0  0  0  2  0  0  0  0  0  0
  148.0860  141.9460  151.5270 C   0  0  0  0  0  2  0  0  0  0  0  0
  149.0860  141.8200  153.8250 C   0  0  0  0  0  1  0  0  0  0  0  0
  147.8060  141.9980  153.0270 C   0  0  0  0  0  2  0  0  0  0  0  0
  141.2740  138.5900  154.0170 C   0  0  0  0  0  2  0  0  0  0  0  0
  140.4750  138.1100  152.8250 C   0  0  0  0  0  0  0  0  0  0  0  0
  139.0790  138.0760  152.8670 C   0  0  0  0  0  3  0  0  0  0  0  0
  138.3410  137.5670  151.7940 C   0  0  0  0  0  3  0  0  0  0  0  0
  138.9620  137.0560  150.6410 C   0  0  0  0  0  0  0  0  0  0  0  0
  140.3660  137.1330  150.5540 C   0  0  0  0  0  0  0  0  0  0  0  0
  141.0990  137.6470  151.6520 C   0  0  0  0  0  3  0  0  0  0  0  0
  137.8480  136.2860  149.4640 S   0  0  0  0  0  0  0  0  0  0  0  0
  136.8630  137.1640  149.1320 H   0  0  0  0  0  0  0  0  0  0  0  0
  141.1970  136.7110  149.5440 O   0  0  0  0  0  0  0  0  0  0  0  0
  142.5780  136.5180  149.8220 C   0  0  0  0  0  1  0  0  0  0  0  0
  1  3  1  0  0  0  0
  1  2  2  0  0  0  0
  3 13  1  0  0  0  0
  4  3  1  0  0  0  0
  5  1  1  0  0  0  0
  6  5  1  0  0  0  0
  7  8  1  0  0  0  0
  7  6  1  0  0  0  0
  9 10  1  0  0  0  0
  9  8  1  0  0  0  0
 10 12  1  0  0  0  0
 12 11  1  0  0  0  0
 14 15  1  0  0  0  0
 14 13  1  0  0  0  0
 16 15  2  0  0  0  0
 17 16  1  0  0  0  0
 18 17  2  0  0  0  0
 18 19  1  0  0  0  0
 19 14  2  0  0  0  0
 20 17  1  0  0  0  0
 21 20  1  0  0  0  0
 22 23  1  0  0  0  0
 22 18  1  0  0  0  0
M  END
>  <MODEL>
2

>  <REMARK>
 VINA RESULT:    -5.929      3.419      4.751
 INTER + INTRA:         -10.418
 INTER:                  -9.443
 INTRA:                  -0.975
 UNBOUND:                -0.849
  Name = CHEMBL77060
  13 active torsions:
  status: ('A' for Active; 'I' for Inactive)
    1  A    between atoms: C_1  and  C_2
    2  A    between atoms: C_2  and  C_3
    3  A    between atoms: C_3  and  C_4
    4  A    between atoms: C_4  and  C_5
    5  A    between atoms: C_5  and  C_6
    6  A    between atoms: C_6  and  C_7
    7  A    between atoms: C_7  and  C_8
    8  A    between atoms: C_8  and  C_9
    9  A    between atoms: N_11  and  C_12
   10  A    between atoms: C_12  and  C_13
   11  A    between atoms: C_16  and  S_17
   12  A    between atoms: C_18  and  O_19
   13  A    between atoms: O_19  and  C_20
                            x       y       z     vdW  Elec       q    Type
                         _______ _______ _______ _____ _____    ______ ____

>  <TORSDO>
F 11

>  <SCORE>
-5.929

>  <RMSD_LB>
3.419

>  <RMSD_UB>
4.751

$$$$
CHEMBL77060
 OpenBabel10172500053D

 23 23  0  0  0  0  0  0  0  0999 V2000
  145.7340  138.1440  150.1580 C   0  0  0  0  0  0  0  0  0  0  0  0
  146.3050  137.5530  151.0560 O   0  0  0  0  0  0  0  0  0  0  0  0
  144.4550  137.8240  149.7480 N   0  0  0  0  0  0  0  0  0  0  0  0
  144.0340  138.3370  149.0210 H   0  0  0  0  0  0  0  0  0  0  0  0
  146.3590  139.3110  149.4070 C   0  0  0  0  0  2  0  0  0  0  0  0
  145.3430  140.4320  149.1740 C   0  0  0  0  0  2  0  0  0  0  0  0
  145.1730  141.3390  150.3960 C   0  0  0  0  0  2  0  0  0  0  0  0
  146.3350  142.3260  150.5040 C   0  0  0  0  0  2  0  0  0  0  0  0
  146.9740  142.2760  151.8890 C   0  0  0  0  0  2  0  0  0  0  0  0
  148.4640  141.9590  151.7900 C   0  0  0  0  0  2  0  0  0  0  0  0
  148.0130  141.8420  154.2560 C   0  0  0  0  0  1  0  0  0  0  0  0
  149.0600  141.6810  153.1680 C   0  0  0  0  0  2  0  0  0  0  0  0
  143.7240  136.7410  150.3790 C   0  0  0  0  0  2  0  0  0  0  0  0
  142.6420  137.2190  151.3220 C   0  0  0  0  0  0  0  0  0  0  0  0
  141.2950  137.1380  150.9640 C   0  0  0  0  0  3  0  0  0  0  0  0
  140.2970  137.6430  151.8020 C   0  0  0  0  0  3  0  0  0  0  0  0
  140.6000  138.2650  153.0260 C   0  0  0  0  0  0  0  0  0  0  0  0
  141.9480  138.3070  153.4340 C   0  0  0  0  0  0  0  0  0  0  0  0
  142.9470  137.7950  152.5690 C   0  0  0  0  0  3  0  0  0  0  0  0
  139.1960  139.0060  153.8620 S   0  0  0  0  0  0  0  0  0  0  0  0
  138.0550  138.7050  153.1850 H   0  0  0  0  0  0  0  0  0  0  0  0
  142.4930  138.8500  154.5720 O   0  0  0  0  0  0  0  0  0  0  0  0
  143.8330  139.3260  154.5350 C   0  0  0  0  0  1  0  0  0  0  0  0
  1  2  2  0  0  0  0
  3  1  1  0  0  0  0
  3 13  1  0  0  0  0
  4  3  1  0  0  0  0
  5  1  1  0  0  0  0
  6  5  1  0  0  0  0
  6  7  1  0  0  0  0
  7  8  1  0  0  0  0
  8  9  1  0  0  0  0
 10  9  1  0  0  0  0
 10 12  1  0  0  0  0
 12 11  1  0  0  0  0
 13 14  1  0  0  0  0
 14 19  1  0  0  0  0
 15 14  2  0  0  0  0
 15 16  1  0  0  0  0
 16 17  2  0  0  0  0
 17 18  1  0  0  0  0
 17 20  1  0  0  0  0
 18 22  1  0  0  0  0
 19 18  2  0  0  0  0
 21 20  1  0  0  0  0
 23 22  1  0  0  0  0
M  END
>  <MODEL>
3

>  <REMARK>
 VINA RESULT:    -5.879      2.929      4.807
 INTER + INTRA:         -10.337
 INTER:                  -9.336
 INTRA:                  -1.001
 UNBOUND:                -0.849
  Name = CHEMBL77060
  13 active torsions:
  status: ('A' for Active; 'I' for Inactive)
    1  A    between atoms: C_1  and  C_2
    2  A    between atoms: C_2  and  C_3
    3  A    between atoms: C_3  and  C_4
    4  A    between atoms: C_4  and  C_5
    5  A    between atoms: C_5  and  C_6
    6  A    between atoms: C_6  and  C_7
    7  A    between atoms: C_7  and  C_8
    8  A    between atoms: C_8  and  C_9
    9  A    between atoms: N_11  and  C_12
   10  A    between atoms: C_12  and  C_13
   11  A    between atoms: C_16  and  S_17
   12  A    between atoms: C_18  and  O_19
   13  A    between atoms: O_19  and  C_20
                            x       y       z     vdW  Elec       q    Type
                         _______ _______ _______ _____ _____    ______ ____

>  <TORSDO>
F 11

>  <SCORE>
-5.879

>  <RMSD_LB>
2.929

>  <RMSD_UB>
4.807

$$$$
CHEMBL77060
 OpenBabel10172500053D

 23 23  0  0  0  0  0  0  0  0999 V2000
  146.9360  137.9090  152.6670 C   0  0  0  0  0  0  0  0  0  0  0  0
  147.6000  137.3130  151.8390 O   0  0  0  0  0  0  0  0  0  0  0  0
  145.5560  137.8770  152.6820 N   0  0  0  0  0  0  0  0  0  0  0  0
  145.0640  138.3710  153.3770 H   0  0  0  0  0  0  0  0  0  0  0  0
  147.5550  138.7350  153.7860 C   0  0  0  0  0  2  0  0  0  0  0  0
  148.7820  139.5070  153.2960 C   0  0  0  0  0  2  0  0  0  0  0  0
  148.5860  141.0250  153.3540 C   0  0  0  0  0  2  0  0  0  0  0  0
  147.3660  141.3820  154.2030 C   0  0  0  0  0  2  0  0  0  0  0  0
  146.3780  142.2360  153.4140 C   0  0  0  0  0  2  0  0  0  0  0  0
  146.7320  142.2470  151.9290 C   0  0  0  0  0  2  0  0  0  0  0  0
  144.6870  141.0110  151.1610 C   0  0  0  0  0  1  0  0  0  0  0  0
  145.4750  142.3060  151.0630 C   0  0  0  0  0  2  0  0  0  0  0  0
  144.8230  137.1210  151.6850 C   0  0  0  0  0  2  0  0  0  0  0  0
  143.3220  137.2750  151.8010 C   0  0  0  0  0  0  0  0  0  0  0  0
  142.4810  136.8890  150.7550 C   0  0  0  0  0  3  0  0  0  0  0  0
  141.1000  137.0960  150.8300 C   0  0  0  0  0  3  0  0  0  0  0  0
  140.5010  137.7100  151.9430 C   0  0  0  0  0  0  0  0  0  0  0  0
  141.3230  138.0550  153.0340 C   0  0  0  0  0  0  0  0  0  0  0  0
  142.7210  137.8430  152.9390 C   0  0  0  0  0  3  0  0  0  0  0  0
  138.7480  138.0460  151.7650 S   0  0  0  0  0  0  0  0  0  0  0  0
  138.0670  137.4550  152.7830 H   0  0  0  0  0  0  0  0  0  0  0  0
  140.9820  138.6550  154.2220 O   0  0  0  0  0  0  0  0  0  0  0  0
  140.9060  137.8610  155.3990 C   0  0  0  0  0  1  0  0  0  0  0  0
  1  3  1  0  0  0  0
  1  5  1  0  0  0  0
  2  1  2  0  0  0  0
  3  4  1  0  0  0  0
  6  7  1  0  0  0  0
  6  5  1  0  0  0  0
  7  8  1  0  0  0  0
  9  8  1  0  0  0  0
 10  9  1  0  0  0  0
 12 11  1  0  0  0  0
 12 10  1  0  0  0  0
 13 14  1  0  0  0  0
 13  3  1  0  0  0  0
 14 19  1  0  0  0  0
 15 16  1  0  0  0  0
 15 14  2  0  0  0  0
 16 17  2  0  0  0  0
 17 18  1  0  0  0  0
 18 22  1  0  0  0  0
 19 18  2  0  0  0  0
 20 17  1  0  0  0  0
 20 21  1  0  0  0  0
 22 23  1  0  0  0  0
M  END
>  <MODEL>
4

>  <REMARK>
 VINA RESULT:    -5.849      2.738      4.043
 INTER + INTRA:         -10.289
 INTER:                  -9.083
 INTRA:                  -1.206
 UNBOUND:                -0.849
  Name = CHEMBL77060
  13 active torsions:
  status: ('A' for Active; 'I' for Inactive)
    1  A    between atoms: C_1  and  C_2
    2  A    between atoms: C_2  and  C_3
    3  A    between atoms: C_3  and  C_4
    4  A    between atoms: C_4  and  C_5
    5  A    between atoms: C_5  and  C_6
    6  A    between atoms: C_6  and  C_7
    7  A    between atoms: C_7  and  C_8
    8  A    between atoms: C_8  and  C_9
    9  A    between atoms: N_11  and  C_12
   10  A    between atoms: C_12  and  C_13
   11  A    between atoms: C_16  and  S_17
   12  A    between atoms: C_18  and  O_19
   13  A    between atoms: O_19  and  C_20
                            x       y       z     vdW  Elec       q    Type
                         _______ _______ _______ _____ _____    ______ ____

>  <TORSDO>
F 11

>  <SCORE>
-5.849

>  <RMSD_LB>
2.738

>  <RMSD_UB>
4.043

$$$$
CHEMBL77060
 OpenBabel10172500053D

 23 23  0  0  0  0  0  0  0  0999 V2000
  134.2110  132.5070  148.1290 C   0  0  0  0  0  0  0  0  0  0  0  0
  134.3270  131.3600  148.5190 O   0  0  0  0  0  0  0  0  0  0  0  0
  135.1660  133.1310  147.3520 N   0  0  0  0  0  0  0  0  0  0  0  0
  135.0220  134.0590  147.0560 H   0  0  0  0  0  0  0  0  0  0  0  0
  132.9940  133.3670  148.4380 C   0  0  0  0  0  2  0  0  0  0  0  0
  132.8850  133.6630  149.9350 C   0  0  0  0  0  2  0  0  0  0  0  0
  133.5630  134.9790  150.3280 C   0  0  0  0  0  2  0  0  0  0  0  0
  132.5460  136.1190  150.3760 C   0  0  0  0  0  2  0  0  0  0  0  0
  132.6740  137.0220  149.1520 C   0  0  0  0  0  2  0  0  0  0  0  0
  134.0690  136.9180  148.5410 C   0  0  0  0  0  2  0  0  0  0  0  0
  132.6590  137.0730  146.4710 C   0  0  0  0  0  1  0  0  0  0  0  0
  133.9940  136.6290  147.0440 C   0  0  0  0  0  2  0  0  0  0  0  0
  136.3770  132.4340  146.9650 C   0  0  0  0  0  2  0  0  0  0  0  0
  136.7450  132.6340  145.5110 C   0  0  0  0  0  0  0  0  0  0  0  0
  136.5850  131.6020  144.5840 C   0  0  0  0  0  3  0  0  0  0  0  0
  136.9900  131.7600  143.2550 C   0  0  0  0  0  3  0  0  0  0  0  0
  137.5860  132.9480  142.7970 C   0  0  0  0  0  0  0  0  0  0  0  0
  137.7040  134.0230  143.7000 C   0  0  0  0  0  0  0  0  0  0  0  0
  137.2930  133.8430  145.0450 C   0  0  0  0  0  3  0  0  0  0  0  0
  138.1970  132.8830  141.1120 S   0  0  0  0  0  0  0  0  0  0  0  0
  137.1470  132.7840  140.2520 H   0  0  0  0  0  0  0  0  0  0  0  0
  138.2410  135.2720  143.4980 O   0  0  0  0  0  0  0  0  0  0  0  0
  138.5210  136.0930  144.6240 C   0  0  0  0  0  1  0  0  0  0  0  0
  1  5  1  0  0  0  0
  1  2  2  0  0  0  0
  3  1  1  0  0  0  0
  4  3  1  0  0  0  0
  5  6  1  0  0  0  0
  6  7  1  0  0  0  0
  7  8  1  0  0  0  0
  9  8  1  0  0  0  0
 10  9  1  0  0  0  0
 11 12  1  0  0  0  0
 12 10  1  0  0  0  0
 13  3  1  0  0  0  0
 14 13  1  0  0  0  0
 15 14  2  0  0  0  0
 16 15  1  0  0  0  0
 17 16  2  0  0  0  0
 17 18  1  0  0  0  0
 18 19  2  0  0  0  0
 19 14  1  0  0  0  0
 20 17  1  0  0  0  0
 21 20  1  0  0  0  0
 22 18  1  0  0  0  0
 22 23  1  0  0  0  0
M  END
>  <MODEL>
5

>  <REMARK>
 VINA RESULT:    -5.831     11.765     13.782
 INTER + INTRA:         -10.260
 INTER:                  -9.136
 INTRA:                  -1.123
 UNBOUND:                -0.849
  Name = CHEMBL77060
  13 active torsions:
  status: ('A' for Active; 'I' for Inactive)
    1  A    between atoms: C_1  and  C_2
    2  A    between atoms: C_2  and  C_3
    3  A    between atoms: C_3  and  C_4
    4  A    between atoms: C_4  and  C_5
    5  A    between atoms: C_5  and  C_6
    6  A    between atoms: C_6  and  C_7
    7  A    between atoms: C_7  and  C_8
    8  A    between atoms: C_8  and  C_9
    9  A    between atoms: N_11  and  C_12
   10  A    between atoms: C_12  and  C_13
   11  A    between atoms: C_16  and  S_17
   12  A    between atoms: C_18  and  O_19
   13  A    between atoms: O_19  and  C_20
                            x       y       z     vdW  Elec       q    Type
                         _______ _______ _______ _____ _____    ______ ____

>  <TORSDO>
F 11

>  <SCORE>
-5.831

>  <RMSD_LB>
11.765

>  <RMSD_UB>
13.782

$$$$
CHEMBL77060
 OpenBabel10172500053D

 23 23  0  0  0  0  0  0  0  0999 V2000
  145.8120  137.5640  154.1230 C   0  0  0  0  0  0  0  0  0  0  0  0
  146.0790  136.3970  153.9060 O   0  0  0  0  0  0  0  0  0  0  0  0
  144.6290  138.1480  153.7180 N   0  0  0  0  0  0  0  0  0  0  0  0
  144.4580  139.0960  153.9230 H   0  0  0  0  0  0  0  0  0  0  0  0
  146.7430  138.4980  154.8850 C   0  0  0  0  0  2  0  0  0  0  0  0
  147.9110  138.9560  154.0090 C   0  0  0  0  0  2  0  0  0  0  0  0
  147.9710  140.4790  153.8530 C   0  0  0  0  0  2  0  0  0  0  0  0
  146.6050  141.1060  154.1320 C   0  0  0  0  0  2  0  0  0  0  0  0
  146.3450  142.2930  153.2090 C   0  0  0  0  0  2  0  0  0  0  0  0
  145.5220  141.8690  151.9950 C   0  0  0  0  0  2  0  0  0  0  0  0
  147.5190  142.3550  150.5560 C   0  0  0  0  0  1  0  0  0  0  0  0
  146.0220  142.5520  150.7240 C   0  0  0  0  0  2  0  0  0  0  0  0
  143.6360  137.3800  152.9920 C   0  0  0  0  0  2  0  0  0  0  0  0
  142.2140  137.7300  153.3720 C   0  0  0  0  0  0  0  0  0  0  0  0
  141.8920  138.0910  154.6820 C   0  0  0  0  0  3  0  0  0  0  0  0
  140.5690  138.3450  155.0530 C   0  0  0  0  0  3  0  0  0  0  0  0
  139.5070  138.2370  154.1380 C   0  0  0  0  0  0  0  0  0  0  0  0
  139.8140  137.9300  152.7980 C   0  0  0  0  0  0  0  0  0  0  0  0
  141.1610  137.6700  152.4400 C   0  0  0  0  0  3  0  0  0  0  0  0
  137.8730  138.4260  154.8540 S   0  0  0  0  0  0  0  0  0  0  0  0
  137.7250  137.5480  155.8840 H   0  0  0  0  0  0  0  0  0  0  0  0
  138.9670  137.7720  151.7280 O   0  0  0  0  0  0  0  0  0  0  0  0
  138.8890  138.8040  150.7520 C   0  0  0  0  0  1  0  0  0  0  0  0
  1  5  1  0  0  0  0
  2  1  2  0  0  0  0
  3  4  1  0  0  0  0
  3  1  1  0  0  0  0
  6  5  1  0  0  0  0
  7  6  1  0  0  0  0
  7  8  1  0  0  0  0
  9  8  1  0  0  0  0
 10  9  1  0  0  0  0
 11 12  1  0  0  0  0
 12 10  1  0  0  0  0
 13 14  1  0  0  0  0
 13  3  1  0  0  0  0
 14 15  1  0  0  0  0
 15 16  2  0  0  0  0
 17 20  1  0  0  0  0
 17 16  1  0  0  0  0
 18 17  2  0  0  0  0
 19 18  1  0  0  0  0
 19 14  2  0  0  0  0
 20 21  1  0  0  0  0
 22 18  1  0  0  0  0
 23 22  1  0  0  0  0
M  END
>  <MODEL>
6

>  <REMARK>
 VINA RESULT:    -5.785      3.533      4.733
 INTER + INTRA:         -10.186
 INTER:                  -9.319
 INTRA:                  -0.866
 UNBOUND:                -0.849
  Name = CHEMBL77060
  13 active torsions:
  status: ('A' for Active; 'I' for Inactive)
    1  A    between atoms: C_1  and  C_2
    2  A    between atoms: C_2  and  C_3
    3  A    between atoms: C_3  and  C_4
    4  A    between atoms: C_4  and  C_5
    5  A    between atoms: C_5  and  C_6
    6  A    between atoms: C_6  and  C_7
    7  A    between atoms: C_7  and  C_8
    8  A    between atoms: C_8  and  C_9
    9  A    between atoms: N_11  and  C_12
   10  A    between atoms: C_12  and  C_13
   11  A    between atoms: C_16  and  S_17
   12  A    between atoms: C_18  and  O_19
   13  A    between atoms: O_19  and  C_20
                            x       y       z     vdW  Elec       q    Type
                         _______ _______ _______ _____ _____    ______ ____

>  <TORSDO>
F 11

>  <SCORE>
-5.785

>  <RMSD_LB>
3.533

>  <RMSD_UB>
4.733

$$$$
CHEMBL77060
 OpenBabel10172500053D

 23 23  0  0  0  0  0  0  0  0999 V2000
  145.4940  138.2370  154.4000 C   0  0  0  0  0  0  0  0  0  0  0  0
  145.9800  137.1240  154.3260 O   0  0  0  0  0  0  0  0  0  0  0  0
  144.1490  138.4800  154.2110 N   0  0  0  0  0  0  0  0  0  0  0  0
  143.8040  139.3990  154.2890 H   0  0  0  0  0  0  0  0  0  0  0  0
  146.3140  139.4770  154.7310 C   0  0  0  0  0  2  0  0  0  0  0  0
  147.7060  139.4100  154.0980 C   0  0  0  0  0  2  0  0  0  0  0  0
  148.3340  140.7930  153.9060 C   0  0  0  0  0  2  0  0  0  0  0  0
  147.2540  141.8550  153.7000 C   0  0  0  0  0  2  0  0  0  0  0  0
  147.1020  142.2060  152.2220 C   0  0  0  0  0  2  0  0  0  0  0  0
  145.6300  142.2390  151.8190 C   0  0  0  0  0  2  0  0  0  0  0  0
  146.0530  140.0590  150.6510 C   0  0  0  0  0  1  0  0  0  0  0  0
  145.1020  140.8320  151.5480 C   0  0  0  0  0  2  0  0  0  0  0  0
  143.2370  137.3950  153.9010 C   0  0  0  0  0  2  0  0  0  0  0  0
  142.8040  137.3730  152.4520 C   0  0  0  0  0  0  0  0  0  0  0  0
  141.4530  137.4620  152.1090 C   0  0  0  0  0  3  0  0  0  0  0  0
  141.0430  137.3710  150.7750 C   0  0  0  0  0  3  0  0  0  0  0  0
  141.9600  137.1710  149.7290 C   0  0  0  0  0  0  0  0  0  0  0  0
  143.3320  137.1350  150.0460 C   0  0  0  0  0  0  0  0  0  0  0  0
  143.7290  137.2240  151.4030 C   0  0  0  0  0  3  0  0  0  0  0  0
  141.2170  136.9000  148.1180 S   0  0  0  0  0  0  0  0  0  0  0  0
  141.4360  135.6150  147.7290 H   0  0  0  0  0  0  0  0  0  0  0  0
  144.4100  136.9570  149.2130 O   0  0  0  0  0  0  0  0  0  0  0  0
  144.8650  135.6360  148.9480 C   0  0  0  0  0  1  0  0  0  0  0  0
  1  5  1  0  0  0  0
  2  1  2  0  0  0  0
  3  4  1  0  0  0  0
  3  1  1  0  0  0  0
  6  5  1  0  0  0  0
  7  6  1  0  0  0  0
  8  7  1  0  0  0  0
  9  8  1  0  0  0  0
 10  9  1  0  0  0  0
 11 12  1  0  0  0  0
 12 10  1  0  0  0  0
 13  3  1  0  0  0  0
 14 13  1  0  0  0  0
 15 14  1  0  0  0  0
 16 15  2  0  0  0  0
 17 18  2  0  0  0  0
 17 16  1  0  0  0  0
 18 19  1  0  0  0  0
 19 14  2  0  0  0  0
 20 17  1  0  0  0  0
 21 20  1  0  0  0  0
 22 18  1  0  0  0  0
 23 22  1  0  0  0  0
M  END
>  <MODEL>
7

>  <REMARK>
 VINA RESULT:    -5.744      1.876      2.820
 INTER + INTRA:         -10.118
 INTER:                  -8.505
 INTRA:                  -1.613
 UNBOUND:                -0.849
  Name = CHEMBL77060
  13 active torsions:
  status: ('A' for Active; 'I' for Inactive)
    1  A    between atoms: C_1  and  C_2
    2  A    between atoms: C_2  and  C_3
    3  A    between atoms: C_3  and  C_4
    4  A    between atoms: C_4  and  C_5
    5  A    between atoms: C_5  and  C_6
    6  A    between atoms: C_6  and  C_7
    7  A    between atoms: C_7  and  C_8
    8  A    between atoms: C_8  and  C_9
    9  A    between atoms: N_11  and  C_12
   10  A    between atoms: C_12  and  C_13
   11  A    between atoms: C_16  and  S_17
   12  A    between atoms: C_18  and  O_19
   13  A    between atoms: O_19  and  C_20
                            x       y       z     vdW  Elec       q    Type
                         _______ _______ _______ _____ _____    ______ ____

>  <TORSDO>
F 11

>  <SCORE>
-5.744

>  <RMSD_LB>
1.876

>  <RMSD_UB>
2.820

$$$$
CHEMBL77060
 OpenBabel10172500053D

 23 23  0  0  0  0  0  0  0  0999 V2000
  136.8750  136.6260  152.0800 C   0  0  0  0  0  0  0  0  0  0  0  0
  136.5190  136.6630  153.2430 O   0  0  0  0  0  0  0  0  0  0  0  0
  137.9600  137.3340  151.6070 N   0  0  0  0  0  0  0  0  0  0  0  0
  138.2110  137.2650  150.6570 H   0  0  0  0  0  0  0  0  0  0  0  0
  136.1750  135.7760  151.0280 C   0  0  0  0  0  2  0  0  0  0  0  0
  136.0000  134.3320  151.5050 C   0  0  0  0  0  2  0  0  0  0  0  0
  134.5400  133.9830  151.8100 C   0  0  0  0  0  2  0  0  0  0  0  0
  133.6710  134.1500  150.5650 C   0  0  0  0  0  2  0  0  0  0  0  0
  132.5250  135.1260  150.8200 C   0  0  0  0  0  2  0  0  0  0  0  0
  132.7090  136.4060  150.0090 C   0  0  0  0  0  2  0  0  0  0  0  0
  132.6310  137.0590  147.5870 C   0  0  0  0  0  1  0  0  0  0  0  0
  133.2230  136.0990  148.6050 C   0  0  0  0  0  2  0  0  0  0  0  0
  138.7360  138.1800  152.4940 C   0  0  0  0  0  2  0  0  0  0  0  0
  140.2160  137.8670  152.4760 C   0  0  0  0  0  0  0  0  0  0  0  0
  141.0260  138.1780  153.5710 C   0  0  0  0  0  3  0  0  0  0  0  0
  142.4060  137.9560  153.5300 C   0  0  0  0  0  3  0  0  0  0  0  0
  143.0390  137.4300  152.3910 C   0  0  0  0  0  0  0  0  0  0  0  0
  142.2350  137.0560  151.2970 C   0  0  0  0  0  0  0  0  0  0  0  0
  140.8390  137.2920  151.3530 C   0  0  0  0  0  3  0  0  0  0  0  0
  144.8310  137.3930  152.4760 S   0  0  0  0  0  0  0  0  0  0  0  0
  145.2180  136.9490  153.7030 H   0  0  0  0  0  0  0  0  0  0  0  0
  142.6100  136.5230  150.0870 O   0  0  0  0  0  0  0  0  0  0  0  0
  141.6320  136.3810  149.0640 C   0  0  0  0  0  1  0  0  0  0  0  0
  1  2  2  0  0  0  0
  3  1  1  0  0  0  0
  3 13  1  0  0  0  0
  4  3  1  0  0  0  0
  5  6  1  0  0  0  0
  5  1  1  0  0  0  0
  6  7  1  0  0  0  0
  8  9  1  0  0  0  0
  8  7  1  0  0  0  0
 10  9  1  0  0  0  0
 11 12  1  0  0  0  0
 12 10  1  0  0  0  0
 14 13  1  0  0  0  0
 14 15  1  0  0  0  0
 16 15  2  0  0  0  0
 17 20  1  0  0  0  0
 17 16  1  0  0  0  0
 18 19  1  0  0  0  0
 18 17  2  0  0  0  0
 19 14  2  0  0  0  0
 20 21  1  0  0  0  0
 22 18  1  0  0  0  0
 23 22  1  0  0  0  0
M  END
>  <MODEL>
8

>  <REMARK>
 VINA RESULT:    -5.657      7.655     10.235
 INTER + INTRA:          -9.979
 INTER:                  -9.129
 INTRA:                  -0.849
 UNBOUND:                -0.849
  Name = CHEMBL77060
  13 active torsions:
  status: ('A' for Active; 'I' for Inactive)
    1  A    between atoms: C_1  and  C_2
    2  A    between atoms: C_2  and  C_3
    3  A    between atoms: C_3  and  C_4
    4  A    between atoms: C_4  and  C_5
    5  A    between atoms: C_5  and  C_6
    6  A    between atoms: C_6  and  C_7
    7  A    between atoms: C_7  and  C_8
    8  A    between atoms: C_8  and  C_9
    9  A    between atoms: N_11  and  C_12
   10  A    between atoms: C_12  and  C_13
   11  A    between atoms: C_16  and  S_17
   12  A    between atoms: C_18  and  O_19
   13  A    between atoms: O_19  and  C_20
                            x       y       z     vdW  Elec       q    Type
                         _______ _______ _______ _____ _____    ______ ____

>  <TORSDO>
F 11

>  <SCORE>
-5.657

>  <RMSD_LB>
7.655

>  <RMSD_UB>
10.235

$$$$
CHEMBL77060
 OpenBabel10172500053D

 23 23  0  0  0  0  0  0  0  0999 V2000
  134.5490  134.6020  152.9410 C   0  0  0  0  0  0  0  0  0  0  0  0
  135.5860  133.9820  152.7970 O   0  0  0  0  0  0  0  0  0  0  0  0
  133.4130  134.3420  152.2020 N   0  0  0  0  0  0  0  0  0  0  0  0
  132.5960  134.8680  152.3610 H   0  0  0  0  0  0  0  0  0  0  0  0
  134.3870  135.7140  153.9690 C   0  0  0  0  0  2  0  0  0  0  0  0
  135.0820  135.3610  155.2860 C   0  0  0  0  0  2  0  0  0  0  0  0
  136.4370  136.0580  155.4430 C   0  0  0  0  0  2  0  0  0  0  0  0
  136.9120  135.9980  156.8940 C   0  0  0  0  0  2  0  0  0  0  0  0
  135.8410  135.3980  157.8010 C   0  0  0  0  0  2  0  0  0  0  0  0
  136.3300  135.3210  159.2450 C   0  0  0  0  0  2  0  0  0  0  0  0
  134.0490  135.8180  160.1660 C   0  0  0  0  0  1  0  0  0  0  0  0
  135.5100  136.2350  160.1530 C   0  0  0  0  0  2  0  0  0  0  0  0
  133.4100  133.3010  151.1920 C   0  0  0  0  0  2  0  0  0  0  0  0
  133.7350  133.8110  149.8050 C   0  0  0  0  0  0  0  0  0  0  0  0
  133.4750  135.1370  149.4520 C   0  0  0  0  0  3  0  0  0  0  0  0
  133.7070  135.5940  148.1510 C   0  0  0  0  0  3  0  0  0  0  0  0
  134.1940  134.7440  147.1430 C   0  0  0  0  0  0  0  0  0  0  0  0
  134.5170  133.4180  147.4900 C   0  0  0  0  0  0  0  0  0  0  0  0
  134.2710  132.9710  148.8120 C   0  0  0  0  0  3  0  0  0  0  0  0
  134.2500  135.4750  145.5050 S   0  0  0  0  0  0  0  0  0  0  0  0
  133.2620  136.4040  145.3890 H   0  0  0  0  0  0  0  0  0  0  0  0
  135.0050  132.4070  146.6970 O   0  0  0  0  0  0  0  0  0  0  0  0
  136.3470  132.4800  146.2340 C   0  0  0  0  0  1  0  0  0  0  0  0
  1  5  1  0  0  0  0
  2  1  2  0  0  0  0
  3  4  1  0  0  0  0
  3  1  1  0  0  0  0
  5  6  1  0  0  0  0
  6  7  1  0  0  0  0
  7  8  1  0  0  0  0
  8  9  1  0  0  0  0
  9 10  1  0  0  0  0
 10 12  1  0  0  0  0
 12 11  1  0  0  0  0
 13  3  1  0  0  0  0
 14 13  1  0  0  0  0
 15 14  1  0  0  0  0
 16 15  2  0  0  0  0
 17 18  2  0  0  0  0
 17 16  1  0  0  0  0
 18 19  1  0  0  0  0
 19 14  2  0  0  0  0
 20 17  1  0  0  0  0
 21 20  1  0  0  0  0
 22 18  1  0  0  0  0
 23 22  1  0  0  0  0
M  END
>  <MODEL>
9

>  <REMARK>
 VINA RESULT:    -5.656     11.404     13.292
 INTER + INTRA:          -9.977
 INTER:                  -9.364
 INTRA:                  -0.613
 UNBOUND:                -0.849
  Name = CHEMBL77060
  13 active torsions:
  status: ('A' for Active; 'I' for Inactive)
    1  A    between atoms: C_1  and  C_2
    2  A    between atoms: C_2  and  C_3
    3  A    between atoms: C_3  and  C_4
    4  A    between atoms: C_4  and  C_5
    5  A    between atoms: C_5  and  C_6
    6  A    between atoms: C_6  and  C_7
    7  A    between atoms: C_7  and  C_8
    8  A    between atoms: C_8  and  C_9
    9  A    between atoms: N_11  and  C_12
   10  A    between atoms: C_12  and  C_13
   11  A    between atoms: C_16  and  S_17
   12  A    between atoms: C_18  and  O_19
   13  A    between atoms: O_19  and  C_20
                            x       y       z     vdW  Elec       q    Type
                         _______ _______ _______ _____ _____    ______ ____

>  <TORSDO>
F 11

>  <SCORE>
-5.656

>  <RMSD_LB>
11.404

>  <RMSD_UB>
13.292

$$$$
