CHEMBL191098
 OpenBabel10162523553D

 29 29  0  0  0  0  0  0  0  0999 V2000
  145.8090  138.2540  152.8570 C   0  0  0  0  0  0  0  0  0  0  0  0
  147.2150  138.0280  152.9160 C   0  0  0  0  0  3  0  0  0  0  0  0
  147.9350  138.1270  154.1060 C   0  0  0  0  0  0  0  0  0  0  0  0
  147.2340  138.4560  155.2600 C   0  0  0  0  0  0  0  0  0  0  0  0
  145.8660  138.7400  155.2280 C   0  0  0  0  0  3  0  0  0  0  0  0
  145.1240  138.6610  154.0290 C   0  0  0  0  0  0  0  0  0  0  0  0
  149.2830  137.9160  154.2550 O   0  0  0  0  0  0  0  0  0  0  0  0
  149.9450  137.2410  153.1850 C   0  0  0  0  0  1  0  0  0  0  0  0
  147.8710  138.5150  156.4740 O   0  0  0  0  0  0  0  0  0  0  0  0
  148.2420  139.3230  156.7700 H   0  0  0  0  0  0  0  0  0  0  0  0
  143.7010  139.1190  154.0370 C   0  0  0  0  0  3  0  0  0  0  0  0
  142.6450  138.3250  153.7500 C   0  0  0  0  0  3  0  0  0  0  0  0
  141.2550  138.7370  154.0310 C   0  0  0  0  0  0  0  0  0  0  0  0
  140.3940  138.8910  153.1640 O   0  0  0  0  0  0  0  0  0  0  0  0
  141.0840  138.9850  155.3580 O   0  0  0  0  0  0  0  0  0  0  0  0
  140.5660  137.8810  156.1090 C   0  0  0  0  0  1  0  0  0  0  0  0
  145.1420  138.0360  151.5100 C   0  0  0  0  0  2  0  0  0  0  0  0
  146.0390  139.4440  149.6920 C   0  0  0  0  0  0  0  0  0  0  0  0
  146.9410  138.6490  149.4470 O   0  0  0  0  0  0  0  0  0  0  0  0
  145.0950  139.2310  150.6760 N   0  0  0  0  0  0  0  0  0  0  0  0
  144.3800  139.8930  150.8170 H   0  0  0  0  0  0  0  0  0  0  0  0
  145.9210  140.7650  148.9470 C   0  0  0  0  0  2  0  0  0  0  0  0
  146.7060  141.8450  149.6770 C   0  0  0  0  0  2  0  0  0  0  0  0
  145.8020  142.8460  150.3950 C   0  0  0  0  0  2  0  0  0  0  0  0
  145.6410  142.4520  151.8600 C   0  0  0  0  0  2  0  0  0  0  0  0
  146.9230  141.8230  152.3880 C   0  0  0  0  0  2  0  0  0  0  0  0
  147.0030  141.9690  153.9020 C   0  0  0  0  0  2  0  0  0  0  0  0
  149.3970  141.9040  153.1900 C   0  0  0  0  0  1  0  0  0  0  0  0
  148.4500  141.8850  154.3740 C   0  0  0  0  0  2  0  0  0  0  0  0
  1  2  2  0  0  0  0
  1  6  1  0  0  0  0
  2  3  1  0  0  0  0
  3  7  1  0  0  0  0
  3  4  2  0  0  0  0
  4  9  1  0  0  0  0
  5  4  1  0  0  0  0
  6 11  1  0  0  0  0
  6  5  2  0  0  0  0
  8  7  1  0  0  0  0
  9 10  1  0  0  0  0
 12 13  1  0  0  0  0
 12 11  2  0  0  0  0
 13 15  1  0  0  0  0
 14 13  2  0  0  0  0
 15 16  1  0  0  0  0
 17  1  1  0  0  0  0
 18 20  1  0  0  0  0
 19 18  2  0  0  0  0
 20 21  1  0  0  0  0
 20 17  1  0  0  0  0
 22 23  1  0  0  0  0
 22 18  1  0  0  0  0
 23 24  1  0  0  0  0
 24 25  1  0  0  0  0
 25 26  1  0  0  0  0
 26 27  1  0  0  0  0
 27 29  1  0  0  0  0
 28 29  1  0  0  0  0
M  END
>  <MODEL>
1

>  <REMARK>
 VINA RESULT:    -6.977      0.000      0.000
 INTER + INTRA:         -14.060
 INTER:                 -11.620
 INTRA:                  -2.440
 UNBOUND:                -1.576
  Name = CHEMBL191098
  17 active torsions:
  status: ('A' for Active; 'I' for Inactive)
    1  A    between atoms: C_1  and  C_2
    2  A    between atoms: C_2  and  C_3
    3  A    between atoms: C_3  and  C_4
    4  A    between atoms: C_4  and  C_5
    5  A    between atoms: C_5  and  C_6
    6  A    between atoms: C_6  and  C_7
    7  A    between atoms: C_7  and  C_8
    8  A    between atoms: C_8  and  C_9
    9  A    between atoms: N_11  and  C_12
   10  A    between atoms: C_12  and  C_13
   11  A    between atoms: C_15  and  O_16
   12  A    between atoms: O_16  and  C_17
   13  A    between atoms: C_18  and  O_19
   14  A    between atoms: C_21  and  C_22
   15  A    between atoms: C_23  and  C_24
   16  A    between atoms: C_24  and  O_26
   17  A    between atoms: O_26  and  C_27
                            x       y       z     vdW  Elec       q    Type
                         _______ _______ _______ _____ _____    ______ ____

>  <TORSDO>
F 14

>  <SCORE>
-6.977

>  <RMSD_LB>
0.000

>  <RMSD_UB>
0.000

$$$$
CHEMBL191098
 OpenBabel10162523553D

 29 29  0  0  0  0  0  0  0  0999 V2000
  144.1930  137.8110  152.5540 C   0  0  0  0  0  0  0  0  0  0  0  0
  145.4070  137.1230  152.2610 C   0  0  0  0  0  3  0  0  0  0  0  0
  145.5160  136.2270  151.1980 C   0  0  0  0  0  0  0  0  0  0  0  0
  144.3880  136.0170  150.4110 C   0  0  0  0  0  0  0  0  0  0  0  0
  143.1680  136.6320  150.7050 C   0  0  0  0  0  3  0  0  0  0  0  0
  143.0350  137.5300  151.7870 C   0  0  0  0  0  0  0  0  0  0  0  0
  146.6430  135.5320  150.8390 O   0  0  0  0  0  0  0  0  0  0  0  0
  147.7150  136.2970  150.2880 C   0  0  0  0  0  1  0  0  0  0  0  0
  144.4420  135.1920  149.3160 O   0  0  0  0  0  0  0  0  0  0  0  0
  145.0900  135.3330  148.6540 H   0  0  0  0  0  0  0  0  0  0  0  0
  141.6720  138.0360  152.1330 C   0  0  0  0  0  3  0  0  0  0  0  0
  140.5260  137.5680  151.5890 C   0  0  0  0  0  3  0  0  0  0  0  0
  139.2000  137.9000  152.1480 C   0  0  0  0  0  0  0  0  0  0  0  0
  138.1460  137.3880  151.7690 O   0  0  0  0  0  0  0  0  0  0  0  0
  139.3020  138.8890  153.0780 O   0  0  0  0  0  0  0  0  0  0  0  0
  138.6510  138.6050  154.3210 C   0  0  0  0  0  1  0  0  0  0  0  0
  144.2400  138.8150  153.6930 C   0  0  0  0  0  2  0  0  0  0  0  0
  146.0080  140.5350  153.7960 C   0  0  0  0  0  0  0  0  0  0  0  0
  146.7040  139.8520  154.5420 O   0  0  0  0  0  0  0  0  0  0  0  0
  144.7870  140.1110  153.3110 N   0  0  0  0  0  0  0  0  0  0  0  0
  144.2790  140.6920  152.7000 H   0  0  0  0  0  0  0  0  0  0  0  0
  146.4270  141.9370  153.3830 C   0  0  0  0  0  2  0  0  0  0  0  0
  147.8950  141.9430  152.9810 C   0  0  0  0  0  2  0  0  0  0  0  0
  148.0900  142.0240  151.4680 C   0  0  0  0  0  2  0  0  0  0  0  0
  146.8160  142.5330  150.8000 C   0  0  0  0  0  2  0  0  0  0  0  0
  146.4880  141.6980  149.5700 C   0  0  0  0  0  2  0  0  0  0  0  0
  146.6000  140.2140  149.8880 C   0  0  0  0  0  2  0  0  0  0  0  0
  144.1160  140.2500  149.6290 C   0  0  0  0  0  1  0  0  0  0  0  0
  145.3830  139.4590  149.3680 C   0  0  0  0  0  2  0  0  0  0  0  0
  1 17  1  0  0  0  0
  2  1  1  0  0  0  0
  3  2  2  0  0  0  0
  4  5  2  0  0  0  0
  4  3  1  0  0  0  0
  5  6  1  0  0  0  0
  6 11  1  0  0  0  0
  6  1  2  0  0  0  0
  7  3  1  0  0  0  0
  8  7  1  0  0  0  0
  9  4  1  0  0  0  0
 10  9  1  0  0  0  0
 12 11  2  0  0  0  0
 12 13  1  0  0  0  0
 13 15  1  0  0  0  0
 14 13  2  0  0  0  0
 15 16  1  0  0  0  0
 18 19  2  0  0  0  0
 20 17  1  0  0  0  0
 20 18  1  0  0  0  0
 21 20  1  0  0  0  0
 22 18  1  0  0  0  0
 23 22  1  0  0  0  0
 24 23  1  0  0  0  0
 25 24  1  0  0  0  0
 26 27  1  0  0  0  0
 26 25  1  0  0  0  0
 29 28  1  0  0  0  0
 29 27  1  0  0  0  0
M  END
>  <MODEL>
2

>  <REMARK>
 VINA RESULT:    -6.765      2.200      4.236
 INTER + INTRA:         -13.680
 INTER:                 -11.229
 INTRA:                  -2.450
 UNBOUND:                -1.576
  Name = CHEMBL191098
  17 active torsions:
  status: ('A' for Active; 'I' for Inactive)
    1  A    between atoms: C_1  and  C_2
    2  A    between atoms: C_2  and  C_3
    3  A    between atoms: C_3  and  C_4
    4  A    between atoms: C_4  and  C_5
    5  A    between atoms: C_5  and  C_6
    6  A    between atoms: C_6  and  C_7
    7  A    between atoms: C_7  and  C_8
    8  A    between atoms: C_8  and  C_9
    9  A    between atoms: N_11  and  C_12
   10  A    between atoms: C_12  and  C_13
   11  A    between atoms: C_15  and  O_16
   12  A    between atoms: O_16  and  C_17
   13  A    between atoms: C_18  and  O_19
   14  A    between atoms: C_21  and  C_22
   15  A    between atoms: C_23  and  C_24
   16  A    between atoms: C_24  and  O_26
   17  A    between atoms: O_26  and  C_27
                            x       y       z     vdW  Elec       q    Type
                         _______ _______ _______ _____ _____    ______ ____

>  <TORSDO>
F 14

>  <SCORE>
-6.765

>  <RMSD_LB>
2.200

>  <RMSD_UB>
4.236

$$$$
CHEMBL191098
 OpenBabel10162523553D

 29 29  0  0  0  0  0  0  0  0999 V2000
  142.2770  137.8090  152.7760 C   0  0  0  0  0  0  0  0  0  0  0  0
  142.9810  137.3090  151.6420 C   0  0  0  0  0  3  0  0  0  0  0  0
  142.3280  136.9370  150.4670 C   0  0  0  0  0  0  0  0  0  0  0  0
  140.9450  137.0710  150.4250 C   0  0  0  0  0  0  0  0  0  0  0  0
  140.2200  137.5040  151.5390 C   0  0  0  0  0  3  0  0  0  0  0  0
  140.8620  137.8700  152.7420 C   0  0  0  0  0  0  0  0  0  0  0  0
  142.9250  136.4580  149.3280 O   0  0  0  0  0  0  0  0  0  0  0  0
  143.8870  135.4180  149.5020 C   0  0  0  0  0  1  0  0  0  0  0  0
  140.2460  136.7770  149.2820 O   0  0  0  0  0  0  0  0  0  0  0  0
  140.2120  137.3980  148.5800 H   0  0  0  0  0  0  0  0  0  0  0  0
  140.0200  138.1830  153.9360 C   0  0  0  0  0  3  0  0  0  0  0  0
  138.6680  138.2120  153.9270 C   0  0  0  0  0  3  0  0  0  0  0  0
  137.8760  138.2560  155.1730 C   0  0  0  0  0  0  0  0  0  0  0  0
  136.9360  139.0290  155.3630 O   0  0  0  0  0  0  0  0  0  0  0  0
  138.3710  137.3830  156.0910 O   0  0  0  0  0  0  0  0  0  0  0  0
  137.5590  136.2230  156.3080 C   0  0  0  0  0  1  0  0  0  0  0  0
  143.1230  138.2480  153.9600 C   0  0  0  0  0  2  0  0  0  0  0  0
  145.5100  138.3390  154.5780 C   0  0  0  0  0  0  0  0  0  0  0  0
  145.3760  139.4130  155.1570 O   0  0  0  0  0  0  0  0  0  0  0  0
  144.4640  137.6770  153.9680 N   0  0  0  0  0  0  0  0  0  0  0  0
  144.6250  136.8080  153.5340 H   0  0  0  0  0  0  0  0  0  0  0  0
  146.8720  137.6720  154.4480 C   0  0  0  0  0  2  0  0  0  0  0  0
  147.4800  137.9940  153.0910 C   0  0  0  0  0  2  0  0  0  0  0  0
  148.4590  139.1650  153.1480 C   0  0  0  0  0  2  0  0  0  0  0  0
  147.9080  140.3490  152.3590 C   0  0  0  0  0  2  0  0  0  0  0  0
  147.8130  141.5840  153.2450 C   0  0  0  0  0  2  0  0  0  0  0  0
  146.3960  142.1390  153.2360 C   0  0  0  0  0  2  0  0  0  0  0  0
  145.6560  142.6150  150.8970 C   0  0  0  0  0  1  0  0  0  0  0  0
  145.6200  141.6120  152.0350 C   0  0  0  0  0  2  0  0  0  0  0  0
  1 17  1  0  0  0  0
  2  1  2  0  0  0  0
  3  2  1  0  0  0  0
  4  3  2  0  0  0  0
  4  5  1  0  0  0  0
  5  6  2  0  0  0  0
  6  1  1  0  0  0  0
  6 11  1  0  0  0  0
  7  8  1  0  0  0  0
  7  3  1  0  0  0  0
  9  4  1  0  0  0  0
 10  9  1  0  0  0  0
 12 11  2  0  0  0  0
 12 13  1  0  0  0  0
 13 14  2  0  0  0  0
 13 15  1  0  0  0  0
 15 16  1  0  0  0  0
 17 20  1  0  0  0  0
 18 19  2  0  0  0  0
 20 18  1  0  0  0  0
 21 20  1  0  0  0  0
 22 18  1  0  0  0  0
 23 24  1  0  0  0  0
 23 22  1  0  0  0  0
 25 24  1  0  0  0  0
 25 26  1  0  0  0  0
 27 26  1  0  0  0  0
 28 29  1  0  0  0  0
 29 27  1  0  0  0  0
M  END
>  <MODEL>
3

>  <REMARK>
 VINA RESULT:    -6.700      2.626      5.282
 INTER + INTRA:         -13.564
 INTER:                 -12.148
 INTRA:                  -1.417
 UNBOUND:                -1.576
  Name = CHEMBL191098
  17 active torsions:
  status: ('A' for Active; 'I' for Inactive)
    1  A    between atoms: C_1  and  C_2
    2  A    between atoms: C_2  and  C_3
    3  A    between atoms: C_3  and  C_4
    4  A    between atoms: C_4  and  C_5
    5  A    between atoms: C_5  and  C_6
    6  A    between atoms: C_6  and  C_7
    7  A    between atoms: C_7  and  C_8
    8  A    between atoms: C_8  and  C_9
    9  A    between atoms: N_11  and  C_12
   10  A    between atoms: C_12  and  C_13
   11  A    between atoms: C_15  and  O_16
   12  A    between atoms: O_16  and  C_17
   13  A    between atoms: C_18  and  O_19
   14  A    between atoms: C_21  and  C_22
   15  A    between atoms: C_23  and  C_24
   16  A    between atoms: C_24  and  O_26
   17  A    between atoms: O_26  and  C_27
                            x       y       z     vdW  Elec       q    Type
                         _______ _______ _______ _____ _____    ______ ____

>  <TORSDO>
F 14

>  <SCORE>
-6.700

>  <RMSD_LB>
2.626

>  <RMSD_UB>
5.282

$$$$
CHEMBL191098
 OpenBabel10162523553D

 29 29  0  0  0  0  0  0  0  0999 V2000
  137.1150  136.8220  154.8050 C   0  0  0  0  0  0  0  0  0  0  0  0
  137.7170  137.3360  153.6200 C   0  0  0  0  0  3  0  0  0  0  0  0
  138.8020  138.2100  153.6560 C   0  0  0  0  0  0  0  0  0  0  0  0
  139.2970  138.5750  154.9030 C   0  0  0  0  0  0  0  0  0  0  0  0
  138.6950  138.1350  156.0850 C   0  0  0  0  0  3  0  0  0  0  0  0
  137.5850  137.2620  156.0670 C   0  0  0  0  0  0  0  0  0  0  0  0
  139.4480  138.7420  152.5690 O   0  0  0  0  0  0  0  0  0  0  0  0
  140.2220  137.8380  151.7810 C   0  0  0  0  0  1  0  0  0  0  0  0
  140.3980  139.3860  155.0100 O   0  0  0  0  0  0  0  0  0  0  0  0
  141.0120  139.2550  155.7060 H   0  0  0  0  0  0  0  0  0  0  0  0
  136.9010  136.9490  157.3590 C   0  0  0  0  0  3  0  0  0  0  0  0
  137.1580  137.5760  158.5290 C   0  0  0  0  0  3  0  0  0  0  0  0
  136.2820  137.4290  159.7080 C   0  0  0  0  0  0  0  0  0  0  0  0
  136.0230  138.3440  160.4910 O   0  0  0  0  0  0  0  0  0  0  0  0
  135.8650  136.1400  159.8420 O   0  0  0  0  0  0  0  0  0  0  0  0
  134.4450  135.9800  159.9330 C   0  0  0  0  0  1  0  0  0  0  0  0
  135.9890  135.8190  154.6150 C   0  0  0  0  0  2  0  0  0  0  0  0
  134.2980  135.1530  152.9450 C   0  0  0  0  0  0  0  0  0  0  0  0
  133.5230  134.7540  153.8090 O   0  0  0  0  0  0  0  0  0  0  0  0
  135.5290  135.7060  153.2370 N   0  0  0  0  0  0  0  0  0  0  0  0
  136.1030  136.0280  152.5050 H   0  0  0  0  0  0  0  0  0  0  0  0
  133.9720  135.0240  151.4650 C   0  0  0  0  0  2  0  0  0  0  0  0
  133.6240  133.5800  151.1340 C   0  0  0  0  0  2  0  0  0  0  0  0
  132.8680  133.4450  149.8140 C   0  0  0  0  0  2  0  0  0  0  0  0
  133.8220  133.0120  148.7040 C   0  0  0  0  0  2  0  0  0  0  0  0
  133.3990  133.6150  147.3710 C   0  0  0  0  0  2  0  0  0  0  0  0
  133.8600  135.0620  147.2720 C   0  0  0  0  0  2  0  0  0  0  0  0
  132.8070  136.9940  148.4540 C   0  0  0  0  0  1  0  0  0  0  0  0
  132.6680  136.0100  147.3080 C   0  0  0  0  0  2  0  0  0  0  0  0
  1  6  1  0  0  0  0
  2  3  1  0  0  0  0
  2  1  2  0  0  0  0
  3  4  2  0  0  0  0
  4  9  1  0  0  0  0
  4  5  1  0  0  0  0
  6  5  2  0  0  0  0
  6 11  1  0  0  0  0
  7  3  1  0  0  0  0
  8  7  1  0  0  0  0
  9 10  1  0  0  0  0
 11 12  2  0  0  0  0
 12 13  1  0  0  0  0
 13 15  1  0  0  0  0
 13 14  2  0  0  0  0
 15 16  1  0  0  0  0
 17  1  1  0  0  0  0
 18 20  1  0  0  0  0
 18 19  2  0  0  0  0
 20 17  1  0  0  0  0
 21 20  1  0  0  0  0
 22 18  1  0  0  0  0
 23 22  1  0  0  0  0
 24 23  1  0  0  0  0
 25 24  1  0  0  0  0
 26 25  1  0  0  0  0
 27 29  1  0  0  0  0
 27 26  1  0  0  0  0
 29 28  1  0  0  0  0
M  END
>  <MODEL>
4

>  <REMARK>
 VINA RESULT:    -6.548      7.263     11.789
 INTER + INTRA:         -13.291
 INTER:                 -12.109
 INTRA:                  -1.183
 UNBOUND:                -1.576
  Name = CHEMBL191098
  17 active torsions:
  status: ('A' for Active; 'I' for Inactive)
    1  A    between atoms: C_1  and  C_2
    2  A    between atoms: C_2  and  C_3
    3  A    between atoms: C_3  and  C_4
    4  A    between atoms: C_4  and  C_5
    5  A    between atoms: C_5  and  C_6
    6  A    between atoms: C_6  and  C_7
    7  A    between atoms: C_7  and  C_8
    8  A    between atoms: C_8  and  C_9
    9  A    between atoms: N_11  and  C_12
   10  A    between atoms: C_12  and  C_13
   11  A    between atoms: C_15  and  O_16
   12  A    between atoms: O_16  and  C_17
   13  A    between atoms: C_18  and  O_19
   14  A    between atoms: C_21  and  C_22
   15  A    between atoms: C_23  and  C_24
   16  A    between atoms: C_24  and  O_26
   17  A    between atoms: O_26  and  C_27
                            x       y       z     vdW  Elec       q    Type
                         _______ _______ _______ _____ _____    ______ ____

>  <TORSDO>
F 14

>  <SCORE>
-6.548

>  <RMSD_LB>
7.263

>  <RMSD_UB>
11.789

$$$$
CHEMBL191098
 OpenBabel10162523553D

 29 29  0  0  0  0  0  0  0  0999 V2000
  142.7610  137.4840  152.3100 C   0  0  0  0  0  0  0  0  0  0  0  0
  141.3850  137.5360  151.9420 C   0  0  0  0  0  3  0  0  0  0  0  0
  140.4410  138.2350  152.6930 C   0  0  0  0  0  0  0  0  0  0  0  0
  140.8830  138.8980  153.8330 C   0  0  0  0  0  0  0  0  0  0  0  0
  142.2140  138.8200  154.2530 C   0  0  0  0  0  3  0  0  0  0  0  0
  143.1800  138.1030  153.5140 C   0  0  0  0  0  0  0  0  0  0  0  0
  139.1030  138.3460  152.4080 O   0  0  0  0  0  0  0  0  0  0  0  0
  138.7520  138.4390  151.0280 C   0  0  0  0  0  1  0  0  0  0  0  0
  140.0180  139.6500  154.5860 O   0  0  0  0  0  0  0  0  0  0  0  0
  140.3470  140.3360  155.1330 H   0  0  0  0  0  0  0  0  0  0  0  0
  144.5480  137.9390  154.0950 C   0  0  0  0  0  3  0  0  0  0  0  0
  145.4300  138.9500  154.2620 C   0  0  0  0  0  3  0  0  0  0  0  0
  146.6510  138.7990  155.0790 C   0  0  0  0  0  0  0  0  0  0  0  0
  146.6470  138.6590  156.3030 O   0  0  0  0  0  0  0  0  0  0  0  0
  147.7650  138.9060  154.3050 O   0  0  0  0  0  0  0  0  0  0  0  0
  148.3590  137.6550  153.9410 C   0  0  0  0  0  1  0  0  0  0  0  0
  143.6910  136.7500  151.3580 C   0  0  0  0  0  2  0  0  0  0  0  0
  146.0720  137.2070  150.8950 C   0  0  0  0  0  0  0  0  0  0  0  0
  146.4310  136.1530  151.4100 O   0  0  0  0  0  0  0  0  0  0  0  0
  144.7480  137.5890  150.8070 N   0  0  0  0  0  0  0  0  0  0  0  0
  144.5150  138.4370  150.3650 H   0  0  0  0  0  0  0  0  0  0  0  0
  147.0800  138.2080  150.3490 C   0  0  0  0  0  2  0  0  0  0  0  0
  146.4760  138.9660  149.1760 C   0  0  0  0  0  2  0  0  0  0  0  0
  146.4030  140.4710  149.4240 C   0  0  0  0  0  2  0  0  0  0  0  0
  144.9830  140.8710  149.8140 C   0  0  0  0  0  2  0  0  0  0  0  0
  144.9000  141.1610  151.3070 C   0  0  0  0  0  2  0  0  0  0  0  0
  145.6420  142.4480  151.6410 C   0  0  0  0  0  2  0  0  0  0  0  0
  147.9240  141.9120  152.5050 C   0  0  0  0  0  1  0  0  0  0  0  0
  146.4990  142.2660  152.8880 C   0  0  0  0  0  2  0  0  0  0  0  0
  1  6  1  0  0  0  0
  2  1  2  0  0  0  0
  2  3  1  0  0  0  0
  3  4  2  0  0  0  0
  4  5  1  0  0  0  0
  4  9  1  0  0  0  0
  6 11  1  0  0  0  0
  6  5  2  0  0  0  0
  7  3  1  0  0  0  0
  8  7  1  0  0  0  0
  9 10  1  0  0  0  0
 11 12  2  0  0  0  0
 12 13  1  0  0  0  0
 13 14  2  0  0  0  0
 15 13  1  0  0  0  0
 16 15  1  0  0  0  0
 17  1  1  0  0  0  0
 18 19  2  0  0  0  0
 20 18  1  0  0  0  0
 20 17  1  0  0  0  0
 21 20  1  0  0  0  0
 22 18  1  0  0  0  0
 23 24  1  0  0  0  0
 23 22  1  0  0  0  0
 24 25  1  0  0  0  0
 25 26  1  0  0  0  0
 26 27  1  0  0  0  0
 27 29  1  0  0  0  0
 28 29  1  0  0  0  0
M  END
>  <MODEL>
5

>  <REMARK>
 VINA RESULT:    -6.548      1.589      5.265
 INTER + INTRA:         -13.291
 INTER:                 -11.036
 INTRA:                  -2.256
 UNBOUND:                -1.576
  Name = CHEMBL191098
  17 active torsions:
  status: ('A' for Active; 'I' for Inactive)
    1  A    between atoms: C_1  and  C_2
    2  A    between atoms: C_2  and  C_3
    3  A    between atoms: C_3  and  C_4
    4  A    between atoms: C_4  and  C_5
    5  A    between atoms: C_5  and  C_6
    6  A    between atoms: C_6  and  C_7
    7  A    between atoms: C_7  and  C_8
    8  A    between atoms: C_8  and  C_9
    9  A    between atoms: N_11  and  C_12
   10  A    between atoms: C_12  and  C_13
   11  A    between atoms: C_15  and  O_16
   12  A    between atoms: O_16  and  C_17
   13  A    between atoms: C_18  and  O_19
   14  A    between atoms: C_21  and  C_22
   15  A    between atoms: C_23  and  C_24
   16  A    between atoms: C_24  and  O_26
   17  A    between atoms: O_26  and  C_27
                            x       y       z     vdW  Elec       q    Type
                         _______ _______ _______ _____ _____    ______ ____

>  <TORSDO>
F 14

>  <SCORE>
-6.548

>  <RMSD_LB>
1.589

>  <RMSD_UB>
5.265

$$$$
CHEMBL191098
 OpenBabel10162523553D

 29 29  0  0  0  0  0  0  0  0999 V2000
  135.7780  135.6370  151.8100 C   0  0  0  0  0  0  0  0  0  0  0  0
  135.9500  135.8810  153.2040 C   0  0  0  0  0  3  0  0  0  0  0  0
  135.3640  135.0740  154.1770 C   0  0  0  0  0  0  0  0  0  0  0  0
  134.5910  134.0000  153.7480 C   0  0  0  0  0  0  0  0  0  0  0  0
  134.3550  133.7680  152.3900 C   0  0  0  0  0  3  0  0  0  0  0  0
  134.9280  134.5840  151.3910 C   0  0  0  0  0  0  0  0  0  0  0  0
  135.4840  135.2280  155.5360 O   0  0  0  0  0  0  0  0  0  0  0  0
  136.5410  136.0740  155.9890 C   0  0  0  0  0  1  0  0  0  0  0  0
  134.0310  133.1340  154.6520 O   0  0  0  0  0  0  0  0  0  0  0  0
  133.4140  133.4490  155.2840 H   0  0  0  0  0  0  0  0  0  0  0  0
  134.5180  134.3690  149.9700 C   0  0  0  0  0  3  0  0  0  0  0  0
  133.8870  133.2610  149.5190 C   0  0  0  0  0  3  0  0  0  0  0  0
  133.2630  133.2030  148.1820 C   0  0  0  0  0  0  0  0  0  0  0  0
  132.1130  133.5750  147.9420 O   0  0  0  0  0  0  0  0  0  0  0  0
  134.1030  132.6230  147.2820 O   0  0  0  0  0  0  0  0  0  0  0  0
  134.3830  133.4230  146.1280 C   0  0  0  0  0  1  0  0  0  0  0  0
  136.5390  136.5500  150.8620 C   0  0  0  0  0  2  0  0  0  0  0  0
  138.9400  137.1140  150.7990 C   0  0  0  0  0  0  0  0  0  0  0  0
  139.0870  136.6020  149.6930 O   0  0  0  0  0  0  0  0  0  0  0  0
  137.7260  137.1540  151.4540 N   0  0  0  0  0  0  0  0  0  0  0  0
  137.6600  137.5950  152.3310 H   0  0  0  0  0  0  0  0  0  0  0  0
  140.1140  137.7120  151.5590 C   0  0  0  0  0  2  0  0  0  0  0  0
  141.4230  137.2930  150.9070 C   0  0  0  0  0  2  0  0  0  0  0  0
  142.5760  137.2050  151.9050 C   0  0  0  0  0  2  0  0  0  0  0  0
  142.2250  137.9640  153.1820 C   0  0  0  0  0  2  0  0  0  0  0  0
  143.2370  139.0720  153.4410 C   0  0  0  0  0  2  0  0  0  0  0  0
  144.6370  138.6140  153.0560 C   0  0  0  0  0  2  0  0  0  0  0  0
  145.7460  136.5640  153.9570 C   0  0  0  0  0  1  0  0  0  0  0  0
  145.3500  137.9980  154.2540 C   0  0  0  0  0  2  0  0  0  0  0  0
  1  2  1  0  0  0  0
  2  3  2  0  0  0  0
  3  7  1  0  0  0  0
  4  3  1  0  0  0  0
  4  9  1  0  0  0  0
  5  4  2  0  0  0  0
  6  1  2  0  0  0  0
  6  5  1  0  0  0  0
  7  8  1  0  0  0  0
  9 10  1  0  0  0  0
 11  6  1  0  0  0  0
 12 11  2  0  0  0  0
 13 12  1  0  0  0  0
 14 13  2  0  0  0  0
 15 13  1  0  0  0  0
 16 15  1  0  0  0  0
 17 20  1  0  0  0  0
 17  1  1  0  0  0  0
 18 20  1  0  0  0  0
 18 22  1  0  0  0  0
 19 18  2  0  0  0  0
 20 21  1  0  0  0  0
 23 22  1  0  0  0  0
 23 24  1  0  0  0  0
 24 25  1  0  0  0  0
 25 26  1  0  0  0  0
 27 26  1  0  0  0  0
 27 29  1  0  0  0  0
 28 29  1  0  0  0  0
M  END
>  <MODEL>
6

>  <REMARK>
 VINA RESULT:    -6.362      6.938     10.268
 INTER + INTRA:         -12.959
 INTER:                 -11.856
 INTRA:                  -1.103
 UNBOUND:                -1.576
  Name = CHEMBL191098
  17 active torsions:
  status: ('A' for Active; 'I' for Inactive)
    1  A    between atoms: C_1  and  C_2
    2  A    between atoms: C_2  and  C_3
    3  A    between atoms: C_3  and  C_4
    4  A    between atoms: C_4  and  C_5
    5  A    between atoms: C_5  and  C_6
    6  A    between atoms: C_6  and  C_7
    7  A    between atoms: C_7  and  C_8
    8  A    between atoms: C_8  and  C_9
    9  A    between atoms: N_11  and  C_12
   10  A    between atoms: C_12  and  C_13
   11  A    between atoms: C_15  and  O_16
   12  A    between atoms: O_16  and  C_17
   13  A    between atoms: C_18  and  O_19
   14  A    between atoms: C_21  and  C_22
   15  A    between atoms: C_23  and  C_24
   16  A    between atoms: C_24  and  O_26
   17  A    between atoms: O_26  and  C_27
                            x       y       z     vdW  Elec       q    Type
                         _______ _______ _______ _____ _____    ______ ____

>  <TORSDO>
F 14

>  <SCORE>
-6.362

>  <RMSD_LB>
6.938

>  <RMSD_UB>
10.268

$$$$
CHEMBL191098
 OpenBabel10162523553D

 29 29  0  0  0  0  0  0  0  0999 V2000
  143.5160  137.3930  150.9580 C   0  0  0  0  0  0  0  0  0  0  0  0
  143.6670  136.6760  149.7350 C   0  0  0  0  0  3  0  0  0  0  0  0
  142.5760  136.1750  149.0270 C   0  0  0  0  0  0  0  0  0  0  0  0
  141.3070  136.3990  149.5500 C   0  0  0  0  0  0  0  0  0  0  0  0
  141.1270  137.0480  150.7750 C   0  0  0  0  0  3  0  0  0  0  0  0
  142.2220  137.5480  151.5140 C   0  0  0  0  0  0  0  0  0  0  0  0
  142.6290  135.4850  147.8420 O   0  0  0  0  0  0  0  0  0  0  0  0
  143.7840  134.6740  147.6280 C   0  0  0  0  0  1  0  0  0  0  0  0
  140.1880  135.9830  148.8760 O   0  0  0  0  0  0  0  0  0  0  0  0
  139.9340  135.0810  148.9000 H   0  0  0  0  0  0  0  0  0  0  0  0
  141.9700  138.0990  152.8800 C   0  0  0  0  0  3  0  0  0  0  0  0
  140.8130  138.6840  153.2640 C   0  0  0  0  0  3  0  0  0  0  0  0
  140.5080  138.9670  154.6810 C   0  0  0  0  0  0  0  0  0  0  0  0
  141.3340  138.8880  155.5910 O   0  0  0  0  0  0  0  0  0  0  0  0
  139.1880  139.2560  154.8420 O   0  0  0  0  0  0  0  0  0  0  0  0
  138.2950  138.2980  154.2630 C   0  0  0  0  0  1  0  0  0  0  0  0
  144.7850  137.9480  151.5810 C   0  0  0  0  0  2  0  0  0  0  0  0
  145.0420  140.3230  152.2010 C   0  0  0  0  0  0  0  0  0  0  0  0
  144.8360  140.0920  153.3890 O   0  0  0  0  0  0  0  0  0  0  0  0
  145.0520  139.3380  151.2340 N   0  0  0  0  0  0  0  0  0  0  0  0
  145.2420  139.5770  150.2980 H   0  0  0  0  0  0  0  0  0  0  0  0
  145.2590  141.7410  151.6940 C   0  0  0  0  0  2  0  0  0  0  0  0
  146.5080  142.3340  152.3290 C   0  0  0  0  0  2  0  0  0  0  0  0
  147.7800  141.9940  151.5550 C   0  0  0  0  0  2  0  0  0  0  0  0
  148.8640  141.5080  152.5130 C   0  0  0  0  0  2  0  0  0  0  0  0
  148.3910  141.6220  153.9560 C   0  0  0  0  0  2  0  0  0  0  0  0
  148.2820  140.2420  154.5910 C   0  0  0  0  0  2  0  0  0  0  0  0
  147.6990  137.9200  153.8770 C   0  0  0  0  0  1  0  0  0  0  0  0
  148.5220  139.1520  153.5530 C   0  0  0  0  0  2  0  0  0  0  0  0
  1  6  1  0  0  0  0
  1 17  1  0  0  0  0
  2  1  2  0  0  0  0
  3  4  2  0  0  0  0
  3  2  1  0  0  0  0
  4  5  1  0  0  0  0
  5  6  2  0  0  0  0
  6 11  1  0  0  0  0
  7  3  1  0  0  0  0
  8  7  1  0  0  0  0
  9 10  1  0  0  0  0
  9  4  1  0  0  0  0
 11 12  2  0  0  0  0
 12 13  1  0  0  0  0
 13 15  1  0  0  0  0
 13 14  2  0  0  0  0
 16 15  1  0  0  0  0
 18 19  2  0  0  0  0
 20 17  1  0  0  0  0
 20 18  1  0  0  0  0
 21 20  1  0  0  0  0
 22 18  1  0  0  0  0
 22 23  1  0  0  0  0
 24 23  1  0  0  0  0
 24 25  1  0  0  0  0
 25 26  1  0  0  0  0
 26 27  1  0  0  0  0
 29 28  1  0  0  0  0
 29 27  1  0  0  0  0
M  END
>  <MODEL>
7

>  <REMARK>
 VINA RESULT:    -6.337      2.733      4.894
 INTER + INTRA:         -12.915
 INTER:                 -11.235
 INTRA:                  -1.680
 UNBOUND:                -1.576
  Name = CHEMBL191098
  17 active torsions:
  status: ('A' for Active; 'I' for Inactive)
    1  A    between atoms: C_1  and  C_2
    2  A    between atoms: C_2  and  C_3
    3  A    between atoms: C_3  and  C_4
    4  A    between atoms: C_4  and  C_5
    5  A    between atoms: C_5  and  C_6
    6  A    between atoms: C_6  and  C_7
    7  A    between atoms: C_7  and  C_8
    8  A    between atoms: C_8  and  C_9
    9  A    between atoms: N_11  and  C_12
   10  A    between atoms: C_12  and  C_13
   11  A    between atoms: C_15  and  O_16
   12  A    between atoms: O_16  and  C_17
   13  A    between atoms: C_18  and  O_19
   14  A    between atoms: C_21  and  C_22
   15  A    between atoms: C_23  and  C_24
   16  A    between atoms: C_24  and  O_26
   17  A    between atoms: O_26  and  C_27
                            x       y       z     vdW  Elec       q    Type
                         _______ _______ _______ _____ _____    ______ ____

>  <TORSDO>
F 14

>  <SCORE>
-6.337

>  <RMSD_LB>
2.733

>  <RMSD_UB>
4.894

$$$$
CHEMBL191098
 OpenBabel10162523553D

 29 29  0  0  0  0  0  0  0  0999 V2000
  137.1240  136.8390  153.1800 C   0  0  0  0  0  0  0  0  0  0  0  0
  137.6240  137.0850  151.8680 C   0  0  0  0  0  3  0  0  0  0  0  0
  138.7120  137.9240  151.6330 C   0  0  0  0  0  0  0  0  0  0  0  0
  139.3150  138.5260  152.7330 C   0  0  0  0  0  0  0  0  0  0  0  0
  138.8150  138.3500  154.0260 C   0  0  0  0  0  3  0  0  0  0  0  0
  137.7030  137.5180  154.2810 C   0  0  0  0  0  0  0  0  0  0  0  0
  139.2640  138.2080  150.4090 O   0  0  0  0  0  0  0  0  0  0  0  0
  138.3990  138.8050  149.4430 C   0  0  0  0  0  1  0  0  0  0  0  0
  140.4250  139.3170  152.5780 O   0  0  0  0  0  0  0  0  0  0  0  0
  140.3670  140.2400  152.7280 H   0  0  0  0  0  0  0  0  0  0  0  0
  137.1320  137.4910  155.6620 C   0  0  0  0  0  3  0  0  0  0  0  0
  137.8550  137.2580  156.7800 C   0  0  0  0  0  3  0  0  0  0  0  0
  137.3130  137.5060  158.1310 C   0  0  0  0  0  0  0  0  0  0  0  0
  137.7940  138.3130  158.9280 O   0  0  0  0  0  0  0  0  0  0  0  0
  136.2650  136.6770  158.3900 O   0  0  0  0  0  0  0  0  0  0  0  0
  136.6350  135.3270  158.6910 C   0  0  0  0  0  1  0  0  0  0  0  0
  135.9820  135.8430  153.2950 C   0  0  0  0  0  2  0  0  0  0  0  0
  133.7900  135.3180  152.2900 C   0  0  0  0  0  0  0  0  0  0  0  0
  133.4000  134.7480  153.3050 O   0  0  0  0  0  0  0  0  0  0  0  0
  135.0370  135.9020  152.1880 N   0  0  0  0  0  0  0  0  0  0  0  0
  135.2910  136.3630  151.3560 H   0  0  0  0  0  0  0  0  0  0  0  0
  132.9310  135.3840  151.0360 C   0  0  0  0  0  2  0  0  0  0  0  0
  132.4060  133.9970  150.6930 C   0  0  0  0  0  2  0  0  0  0  0  0
  132.7440  133.5780  149.2630 C   0  0  0  0  0  2  0  0  0  0  0  0
  134.0970  132.8740  149.2290 C   0  0  0  0  0  2  0  0  0  0  0  0
  134.6650  132.8770  147.8160 C   0  0  0  0  0  2  0  0  0  0  0  0
  135.9340  133.7170  147.7540 C   0  0  0  0  0  2  0  0  0  0  0  0
  135.8890  136.0410  148.6700 C   0  0  0  0  0  1  0  0  0  0  0  0
  136.0730  134.5740  149.0070 C   0  0  0  0  0  2  0  0  0  0  0  0
  1 17  1  0  0  0  0
  1  6  1  0  0  0  0
  2  1  2  0  0  0  0
  3  2  1  0  0  0  0
  3  4  2  0  0  0  0
  4  5  1  0  0  0  0
  5  6  2  0  0  0  0
  6 11  1  0  0  0  0
  7  3  1  0  0  0  0
  8  7  1  0  0  0  0
  9 10  1  0  0  0  0
  9  4  1  0  0  0  0
 11 12  2  0  0  0  0
 12 13  1  0  0  0  0
 13 15  1  0  0  0  0
 13 14  2  0  0  0  0
 15 16  1  0  0  0  0
 18 19  2  0  0  0  0
 20 18  1  0  0  0  0
 20 17  1  0  0  0  0
 21 20  1  0  0  0  0
 22 18  1  0  0  0  0
 23 22  1  0  0  0  0
 24 23  1  0  0  0  0
 25 24  1  0  0  0  0
 26 25  1  0  0  0  0
 27 26  1  0  0  0  0
 27 29  1  0  0  0  0
 28 29  1  0  0  0  0
M  END
>  <MODEL>
8

>  <REMARK>
 VINA RESULT:    -6.309      7.523     11.390
 INTER + INTRA:         -12.864
 INTER:                 -11.287
 INTRA:                  -1.576
 UNBOUND:                -1.576
  Name = CHEMBL191098
  17 active torsions:
  status: ('A' for Active; 'I' for Inactive)
    1  A    between atoms: C_1  and  C_2
    2  A    between atoms: C_2  and  C_3
    3  A    between atoms: C_3  and  C_4
    4  A    between atoms: C_4  and  C_5
    5  A    between atoms: C_5  and  C_6
    6  A    between atoms: C_6  and  C_7
    7  A    between atoms: C_7  and  C_8
    8  A    between atoms: C_8  and  C_9
    9  A    between atoms: N_11  and  C_12
   10  A    between atoms: C_12  and  C_13
   11  A    between atoms: C_15  and  O_16
   12  A    between atoms: O_16  and  C_17
   13  A    between atoms: C_18  and  O_19
   14  A    between atoms: C_21  and  C_22
   15  A    between atoms: C_23  and  C_24
   16  A    between atoms: C_24  and  O_26
   17  A    between atoms: O_26  and  C_27
                            x       y       z     vdW  Elec       q    Type
                         _______ _______ _______ _____ _____    ______ ____

>  <TORSDO>
F 14

>  <SCORE>
-6.309

>  <RMSD_LB>
7.523

>  <RMSD_UB>
11.390

$$$$
CHEMBL191098
 OpenBabel10162523553D

 29 29  0  0  0  0  0  0  0  0999 V2000
  144.6680  137.8640  152.4400 C   0  0  0  0  0  0  0  0  0  0  0  0
  145.7780  138.2940  153.2230 C   0  0  0  0  0  3  0  0  0  0  0  0
  145.6190  138.9230  154.4580 C   0  0  0  0  0  0  0  0  0  0  0  0
  144.3220  139.1210  154.9190 C   0  0  0  0  0  0  0  0  0  0  0  0
  143.2110  138.7630  154.1510 C   0  0  0  0  0  3  0  0  0  0  0  0
  143.3540  138.1400  152.8910 C   0  0  0  0  0  0  0  0  0  0  0  0
  146.6270  139.3590  155.2790 O   0  0  0  0  0  0  0  0  0  0  0  0
  147.8210  138.5770  155.2920 C   0  0  0  0  0  1  0  0  0  0  0  0
  144.0940  139.6820  156.1500 O   0  0  0  0  0  0  0  0  0  0  0  0
  144.7800  139.7060  156.7880 H   0  0  0  0  0  0  0  0  0  0  0  0
  142.1310  137.9170  152.0610 C   0  0  0  0  0  3  0  0  0  0  0  0
  140.8680  137.9370  152.5440 C   0  0  0  0  0  3  0  0  0  0  0  0
  139.6890  137.9830  151.6570 C   0  0  0  0  0  0  0  0  0  0  0  0
  138.6160  137.4350  151.9100 O   0  0  0  0  0  0  0  0  0  0  0  0
  139.9780  138.6480  150.5050 O   0  0  0  0  0  0  0  0  0  0  0  0
  139.4900  139.9940  150.4570 C   0  0  0  0  0  1  0  0  0  0  0  0
  144.9920  137.1240  151.1530 C   0  0  0  0  0  2  0  0  0  0  0  0
  145.3940  138.3950  149.0750 C   0  0  0  0  0  0  0  0  0  0  0  0
  144.2210  138.3030  148.7270 O   0  0  0  0  0  0  0  0  0  0  0  0
  145.8720  137.8620  150.2560 N   0  0  0  0  0  0  0  0  0  0  0  0
  146.8190  137.9830  150.4950 H   0  0  0  0  0  0  0  0  0  0  0  0
  146.4330  139.0740  148.1950 C   0  0  0  0  0  2  0  0  0  0  0  0
  146.3400  140.5840  148.3540 C   0  0  0  0  0  2  0  0  0  0  0  0
  145.5800  140.9980  149.6140 C   0  0  0  0  0  2  0  0  0  0  0  0
  146.4020  142.0000  150.4180 C   0  0  0  0  0  2  0  0  0  0  0  0
  145.6320  142.4540  151.6520 C   0  0  0  0  0  2  0  0  0  0  0  0
  146.4410  142.1830  152.9130 C   0  0  0  0  0  2  0  0  0  0  0  0
  148.7520  141.8880  153.8140 C   0  0  0  0  0  1  0  0  0  0  0  0
  147.8920  141.8730  152.5650 C   0  0  0  0  0  2  0  0  0  0  0  0
  1  6  2  0  0  0  0
  1  2  1  0  0  0  0
  2  3  2  0  0  0  0
  3  4  1  0  0  0  0
  3  7  1  0  0  0  0
  4  9  1  0  0  0  0
  5  4  2  0  0  0  0
  6  5  1  0  0  0  0
  7  8  1  0  0  0  0
  9 10  1  0  0  0  0
 11 12  2  0  0  0  0
 11  6  1  0  0  0  0
 13 14  2  0  0  0  0
 13 12  1  0  0  0  0
 15 13  1  0  0  0  0
 16 15  1  0  0  0  0
 17  1  1  0  0  0  0
 18 20  1  0  0  0  0
 19 18  2  0  0  0  0
 20 21  1  0  0  0  0
 20 17  1  0  0  0  0
 22 23  1  0  0  0  0
 22 18  1  0  0  0  0
 23 24  1  0  0  0  0
 24 25  1  0  0  0  0
 25 26  1  0  0  0  0
 26 27  1  0  0  0  0
 29 27  1  0  0  0  0
 29 28  1  0  0  0  0
M  END
>  <MODEL>
9

>  <REMARK>
 VINA RESULT:    -6.160      1.778      2.688
 INTER + INTRA:         -12.598
 INTER:                 -11.052
 INTRA:                  -1.545
 UNBOUND:                -1.576
  Name = CHEMBL191098
  17 active torsions:
  status: ('A' for Active; 'I' for Inactive)
    1  A    between atoms: C_1  and  C_2
    2  A    between atoms: C_2  and  C_3
    3  A    between atoms: C_3  and  C_4
    4  A    between atoms: C_4  and  C_5
    5  A    between atoms: C_5  and  C_6
    6  A    between atoms: C_6  and  C_7
    7  A    between atoms: C_7  and  C_8
    8  A    between atoms: C_8  and  C_9
    9  A    between atoms: N_11  and  C_12
   10  A    between atoms: C_12  and  C_13
   11  A    between atoms: C_15  and  O_16
   12  A    between atoms: O_16  and  C_17
   13  A    between atoms: C_18  and  O_19
   14  A    between atoms: C_21  and  C_22
   15  A    between atoms: C_23  and  C_24
   16  A    between atoms: C_24  and  O_26
   17  A    between atoms: O_26  and  C_27
                            x       y       z     vdW  Elec       q    Type
                         _______ _______ _______ _____ _____    ______ ____

>  <TORSDO>
F 14

>  <SCORE>
-6.160

>  <RMSD_LB>
1.778

>  <RMSD_UB>
2.688

$$$$
