CHEMBL1976696
 OpenBabel10172500193D

 26 27  0  0  1  0  0  0  0  0999 V2000
  145.4050  139.1900  149.5590 C   0  0  1  0  0  3  0  0  0  0  0  0
  145.9490  137.8000  149.9290 C   0  0  0  0  0  1  0  0  0  0  0  0
  144.1740  139.5590  150.4460 C   0  0  1  0  0  3  0  0  0  0  0  0
  142.9570  140.0150  149.6240 C   0  0  0  0  0  1  0  0  0  0  0  0
  143.7330  138.4150  151.3900 C   0  0  0  0  0  2  0  0  0  0  0  0
  143.6460  138.7750  152.8560 C   0  0  0  0  0  0  0  0  0  0  0  0
  144.7950  139.0960  153.5850 C   0  0  0  0  0  3  0  0  0  0  0  0
  144.6940  139.5090  154.9150 C   0  0  0  0  0  3  0  0  0  0  0  0
  143.4430  139.6060  155.5340 C   0  0  0  0  0  0  0  0  0  0  0  0
  142.2820  139.2570  154.8370 C   0  0  0  0  0  0  0  0  0  0  0  0
  142.4000  138.8500  153.4990 C   0  0  0  0  0  3  0  0  0  0  0  0
  143.3960  140.0590  156.8230 O   0  0  0  0  0  0  0  0  0  0  0  0
  144.1390  139.9530  157.3850 H   0  0  0  0  0  0  0  0  0  0  0  0
  140.9870  139.2630  155.2780 O   0  0  0  0  0  0  0  0  0  0  0  0
  140.3930  138.0250  155.6380 C   0  0  0  0  0  1  0  0  0  0  0  0
  146.5140  140.2700  149.5990 C   0  0  0  0  0  2  0  0  0  0  0  0
  148.1150  140.4800  153.0620 C   0  0  0  0  0  0  0  0  0  0  0  0
  147.8130  140.0590  151.7610 C   0  0  0  0  0  3  0  0  0  0  0  0
  146.8770  140.7600  150.9840 C   0  0  0  0  0  0  0  0  0  0  0  0
  146.2810  141.9170  151.4950 C   0  0  0  0  0  3  0  0  0  0  0  0
  146.5920  142.3600  152.7790 C   0  0  0  0  0  3  0  0  0  0  0  0
  147.4950  141.6350  153.5570 C   0  0  0  0  0  0  0  0  0  0  0  0
  148.4320  138.7970  154.7160 C   0  0  0  0  0  1  0  0  0  0  0  0
  148.9750  139.8330  153.9090 O   0  0  0  0  0  0  0  0  0  0  0  0
  147.7810  142.0620  154.8270 O   0  0  0  0  0  0  0  0  0  0  0  0
  147.6970  142.9690  155.0470 H   0  0  0  0  0  0  0  0  0  0  0  0
  1 16  1  0  0  0  0
  1  2  1  1  0  0  0
  1  3  1  0  0  0  0
  3  4  1  6  0  0  0
  3  5  1  0  0  0  0
  5  6  1  0  0  0  0
  6 11  2  0  0  0  0
  6  7  1  0  0  0  0
  7  8  2  0  0  0  0
  8  9  1  0  0  0  0
  9 12  1  0  0  0  0
 10 14  1  0  0  0  0
 10  9  2  0  0  0  0
 11 10  1  0  0  0  0
 12 13  1  0  0  0  0
 14 15  1  0  0  0  0
 16 19  1  0  0  0  0
 17 22  1  0  0  0  0
 17 24  1  0  0  0  0
 18 17  2  0  0  0  0
 19 20  2  0  0  0  0
 19 18  1  0  0  0  0
 20 21  1  0  0  0  0
 21 22  2  0  0  0  0
 22 25  1  0  0  0  0
 24 23  1  0  0  0  0
 25 26  1  0  0  0  0
M  END
>  <MODEL>
1

>  <REMARK>
 VINA RESULT:    -6.277      0.000      0.000
 INTER + INTRA:         -11.700
 INTER:                  -9.756
 INTRA:                  -1.944
 UNBOUND:                -2.487
  Name = CHEMBL1976696
  13 active torsions:
  status: ('A' for Active; 'I' for Inactive)
    1  A    between atoms: C_1  and  O_2
    2  A    between atoms: O_2  and  C_3
    3  A    between atoms: C_5  and  C_6
    4  A    between atoms: C_6  and  C_7
    5  A    between atoms: C_7  and  C_8
    6  A    between atoms: C_7  and  C_9
    7  A    between atoms: C_9  and  C_10
    8  A    between atoms: C_9  and  C_11
    9  A    between atoms: C_11  and  C_12
   10  A    between atoms: C_15  and  O_16
   11  A    between atoms: C_17  and  O_18
   12  A    between atoms: O_18  and  C_19
   13  A    between atoms: C_23  and  O_24
                            x       y       z     vdW  Elec       q    Type
                         _______ _______ _______ _____ _____    ______ ____

>  <TORSDO>
F 9

>  <SCORE>
-6.277

>  <RMSD_LB>
0.000

>  <RMSD_UB>
0.000

$$$$
CHEMBL1976696
 OpenBabel10172500193D

 26 27  0  0  1  0  0  0  0  0999 V2000
  144.4340  139.0380  150.9730 C   0  0  1  0  0  3  0  0  0  0  0  0
  145.8830  139.0820  150.4610 C   0  0  0  0  0  1  0  0  0  0  0  0
  144.0170  137.5760  151.3320 C   0  0  1  0  0  3  0  0  0  0  0  0
  145.1560  136.5610  151.1290 C   0  0  0  0  0  1  0  0  0  0  0  0
  143.4740  137.4280  152.7730 C   0  0  0  0  0  2  0  0  0  0  0  0
  141.9960  137.6960  152.9440 C   0  0  0  0  0  0  0  0  0  0  0  0
  141.1220  137.6140  151.8560 C   0  0  0  0  0  3  0  0  0  0  0  0
  139.7480  137.7800  152.0410 C   0  0  0  0  0  3  0  0  0  0  0  0
  139.2300  138.0320  153.3150 C   0  0  0  0  0  0  0  0  0  0  0  0
  140.0860  138.1540  154.4130 C   0  0  0  0  0  0  0  0  0  0  0  0
  141.4640  137.9780  154.2120 C   0  0  0  0  0  3  0  0  0  0  0  0
  137.8730  138.1410  153.4480 O   0  0  0  0  0  0  0  0  0  0  0  0
  137.5080  138.5470  154.2110 H   0  0  0  0  0  0  0  0  0  0  0  0
  139.7690  138.4200  155.7180 O   0  0  0  0  0  0  0  0  0  0  0  0
  140.3150  137.5840  156.7270 C   0  0  0  0  0  1  0  0  0  0  0  0
  144.2070  140.0250  152.1450 C   0  0  0  0  0  2  0  0  0  0  0  0
  147.3340  140.1480  154.3380 C   0  0  0  0  0  0  0  0  0  0  0  0
  146.1920  139.6790  153.6770 C   0  0  0  0  0  3  0  0  0  0  0  0
  145.4700  140.5200  152.8150 C   0  0  0  0  0  0  0  0  0  0  0  0
  145.9250  141.8200  152.5750 C   0  0  0  0  0  3  0  0  0  0  0  0
  147.0750  142.2900  153.2080 C   0  0  0  0  0  3  0  0  0  0  0  0
  147.7620  141.4590  154.0920 C   0  0  0  0  0  0  0  0  0  0  0  0
  147.3960  138.3800  155.9310 C   0  0  0  0  0  1  0  0  0  0  0  0
  148.0700  139.4180  155.2320 O   0  0  0  0  0  0  0  0  0  0  0  0
  148.8790  141.9330  154.7290 O   0  0  0  0  0  0  0  0  0  0  0  0
  148.9350  142.8380  154.9670 H   0  0  0  0  0  0  0  0  0  0  0  0
  1  2  1  1  0  0  0
  1  3  1  0  0  0  0
  1 16  1  0  0  0  0
  3  4  1  1  0  0  0
  3  5  1  0  0  0  0
  5  6  1  0  0  0  0
  6 11  1  0  0  0  0
  7  8  1  0  0  0  0
  7  6  2  0  0  0  0
  8  9  2  0  0  0  0
  9 12  1  0  0  0  0
  9 10  1  0  0  0  0
 10 14  1  0  0  0  0
 11 10  2  0  0  0  0
 12 13  1  0  0  0  0
 14 15  1  0  0  0  0
 16 19  1  0  0  0  0
 17 24  1  0  0  0  0
 18 17  2  0  0  0  0
 19 18  1  0  0  0  0
 20 19  2  0  0  0  0
 20 21  1  0  0  0  0
 21 22  2  0  0  0  0
 22 17  1  0  0  0  0
 22 25  1  0  0  0  0
 24 23  1  0  0  0  0
 25 26  1  0  0  0  0
M  END
>  <MODEL>
2

>  <REMARK>
 VINA RESULT:    -6.248      1.767      2.941
 INTER + INTRA:         -11.657
 INTER:                 -10.658
 INTRA:                  -0.999
 UNBOUND:                -2.487
  Name = CHEMBL1976696
  13 active torsions:
  status: ('A' for Active; 'I' for Inactive)
    1  A    between atoms: C_1  and  O_2
    2  A    between atoms: O_2  and  C_3
    3  A    between atoms: C_5  and  C_6
    4  A    between atoms: C_6  and  C_7
    5  A    between atoms: C_7  and  C_8
    6  A    between atoms: C_7  and  C_9
    7  A    between atoms: C_9  and  C_10
    8  A    between atoms: C_9  and  C_11
    9  A    between atoms: C_11  and  C_12
   10  A    between atoms: C_15  and  O_16
   11  A    between atoms: C_17  and  O_18
   12  A    between atoms: O_18  and  C_19
   13  A    between atoms: C_23  and  O_24
                            x       y       z     vdW  Elec       q    Type
                         _______ _______ _______ _____ _____    ______ ____

>  <TORSDO>
F 9

>  <SCORE>
-6.248

>  <RMSD_LB>
1.767

>  <RMSD_UB>
2.941

$$$$
CHEMBL1976696
 OpenBabel10172500193D

 26 27  0  0  1  0  0  0  0  0999 V2000
  138.5820  137.4140  149.5680 C   0  0  1  0  0  3  0  0  0  0  0  0
  138.5850  138.2620  148.2860 C   0  0  0  0  0  1  0  0  0  0  0  0
  137.7560  136.1040  149.3650 C   0  0  1  0  0  3  0  0  0  0  0  0
  138.5100  135.0390  148.5500 C   0  0  0  0  0  1  0  0  0  0  0  0
  137.2800  135.4660  150.6930 C   0  0  0  0  0  2  0  0  0  0  0  0
  135.8040  135.1520  150.7730 C   0  0  0  0  0  0  0  0  0  0  0  0
  135.3520  133.9920  151.4080 C   0  0  0  0  0  3  0  0  0  0  0  0
  133.9830  133.7530  151.5510 C   0  0  0  0  0  3  0  0  0  0  0  0
  133.0490  134.6710  151.0590 C   0  0  0  0  0  0  0  0  0  0  0  0
  133.4760  135.8200  150.3880 C   0  0  0  0  0  0  0  0  0  0  0  0
  134.8540  136.0490  150.2590 C   0  0  0  0  0  3  0  0  0  0  0  0
  131.7220  134.4110  151.2650 O   0  0  0  0  0  0  0  0  0  0  0  0
  131.1270  135.1160  151.4300 H   0  0  0  0  0  0  0  0  0  0  0  0
  132.7170  136.8090  149.8220 O   0  0  0  0  0  0  0  0  0  0  0  0
  132.8090  137.0080  148.4190 C   0  0  0  0  0  1  0  0  0  0  0  0
  140.0180  137.1380  150.0780 C   0  0  0  0  0  2  0  0  0  0  0  0
  139.5460  138.6980  153.5340 C   0  0  0  0  0  0  0  0  0  0  0  0
  139.2790  138.2040  152.2500 C   0  0  0  0  0  3  0  0  0  0  0  0
  140.2990  137.6200  151.4830 C   0  0  0  0  0  0  0  0  0  0  0  0
  141.5810  137.4840  152.0260 C   0  0  0  0  0  3  0  0  0  0  0  0
  141.8530  137.9480  153.3120 C   0  0  0  0  0  3  0  0  0  0  0  0
  140.8410  138.5610  154.0500 C   0  0  0  0  0  0  0  0  0  0  0  0
  137.7310  138.4990  155.0620 C   0  0  0  0  0  1  0  0  0  0  0  0
  138.6280  139.3250  154.3320 O   0  0  0  0  0  0  0  0  0  0  0  0
  141.1190  139.0360  155.3060 O   0  0  0  0  0  0  0  0  0  0  0  0
  141.4940  138.4680  155.9500 H   0  0  0  0  0  0  0  0  0  0  0  0
  1  2  1  6  0  0  0
  1 16  1  0  0  0  0
  3  4  1  1  0  0  0
  3  1  1  0  0  0  0
  3  5  1  0  0  0  0
  5  6  1  0  0  0  0
  6  7  1  0  0  0  0
  7  8  2  0  0  0  0
  9 12  1  0  0  0  0
  9  8  1  0  0  0  0
 10  9  2  0  0  0  0
 11 10  1  0  0  0  0
 11  6  2  0  0  0  0
 12 13  1  0  0  0  0
 14 10  1  0  0  0  0
 15 14  1  0  0  0  0
 16 19  1  0  0  0  0
 17 22  1  0  0  0  0
 17 24  1  0  0  0  0
 18 17  2  0  0  0  0
 19 20  2  0  0  0  0
 19 18  1  0  0  0  0
 20 21  1  0  0  0  0
 21 22  2  0  0  0  0
 22 25  1  0  0  0  0
 24 23  1  0  0  0  0
 25 26  1  0  0  0  0
M  END
>  <MODEL>
3

>  <REMARK>
 VINA RESULT:    -5.974      6.470      9.219
 INTER + INTRA:         -11.255
 INTER:                 -10.045
 INTRA:                  -1.210
 UNBOUND:                -2.487
  Name = CHEMBL1976696
  13 active torsions:
  status: ('A' for Active; 'I' for Inactive)
    1  A    between atoms: C_1  and  O_2
    2  A    between atoms: O_2  and  C_3
    3  A    between atoms: C_5  and  C_6
    4  A    between atoms: C_6  and  C_7
    5  A    between atoms: C_7  and  C_8
    6  A    between atoms: C_7  and  C_9
    7  A    between atoms: C_9  and  C_10
    8  A    between atoms: C_9  and  C_11
    9  A    between atoms: C_11  and  C_12
   10  A    between atoms: C_15  and  O_16
   11  A    between atoms: C_17  and  O_18
   12  A    between atoms: O_18  and  C_19
   13  A    between atoms: C_23  and  O_24
                            x       y       z     vdW  Elec       q    Type
                         _______ _______ _______ _____ _____    ______ ____

>  <TORSDO>
F 9

>  <SCORE>
-5.974

>  <RMSD_LB>
6.470

>  <RMSD_UB>
9.219

$$$$
CHEMBL1976696
 OpenBabel10172500193D

 26 27  0  0  1  0  0  0  0  0999 V2000
  137.9910  137.1990  150.2290 C   0  0  1  0  0  3  0  0  0  0  0  0
  137.4250  138.4350  149.5100 C   0  0  0  0  0  1  0  0  0  0  0  0
  138.1870  136.0170  149.2270 C   0  0  1  0  0  3  0  0  0  0  0  0
  139.6560  135.8180  148.8150 C   0  0  0  0  0  1  0  0  0  0  0  0
  137.6350  134.6700  149.7530 C   0  0  0  0  0  2  0  0  0  0  0  0
  136.1900  134.6870  150.1980 C   0  0  0  0  0  0  0  0  0  0  0  0
  135.1630  134.9530  149.2890 C   0  0  0  0  0  3  0  0  0  0  0  0
  133.8280  134.8830  149.6920 C   0  0  0  0  0  3  0  0  0  0  0  0
  133.5020  134.5470  151.0110 C   0  0  0  0  0  0  0  0  0  0  0  0
  134.5130  134.3110  151.9480 C   0  0  0  0  0  0  0  0  0  0  0  0
  135.8490  134.3790  151.5250 C   0  0  0  0  0  3  0  0  0  0  0  0
  132.1790  134.4480  151.3430 O   0  0  0  0  0  0  0  0  0  0  0  0
  131.9230  133.9760  152.1110 H   0  0  0  0  0  0  0  0  0  0  0  0
  134.3900  133.9980  153.2740 O   0  0  0  0  0  0  0  0  0  0  0  0
  135.1110  134.7750  154.2190 C   0  0  0  0  0  1  0  0  0  0  0  0
  139.2820  137.5330  151.0160 C   0  0  0  0  0  2  0  0  0  0  0  0
  139.9820  138.3570  154.6800 C   0  0  0  0  0  0  0  0  0  0  0  0
  140.1390  138.2210  153.2950 C   0  0  0  0  0  3  0  0  0  0  0  0
  139.0900  137.7290  152.5030 C   0  0  0  0  0  0  0  0  0  0  0  0
  137.8600  137.4230  153.0950 C   0  0  0  0  0  3  0  0  0  0  0  0
  137.6840  137.5790  154.4690 C   0  0  0  0  0  3  0  0  0  0  0  0
  138.7450  138.0320  155.2520 C   0  0  0  0  0  0  0  0  0  0  0  0
  142.1240  139.3600  154.9560 C   0  0  0  0  0  1  0  0  0  0  0  0
  140.9630  138.7800  155.5360 O   0  0  0  0  0  0  0  0  0  0  0  0
  138.5740  138.1620  156.6060 O   0  0  0  0  0  0  0  0  0  0  0  0
  139.2300  138.5860  157.1230 H   0  0  0  0  0  0  0  0  0  0  0  0
  1  2  1  6  0  0  0
  1 16  1  0  0  0  0
  3  4  1  1  0  0  0
  3  5  1  0  0  0  0
  3  1  1  0  0  0  0
  5  6  1  0  0  0  0
  6 11  1  0  0  0  0
  7  8  1  0  0  0  0
  7  6  2  0  0  0  0
  8  9  2  0  0  0  0
  9 12  1  0  0  0  0
  9 10  1  0  0  0  0
 10 14  1  0  0  0  0
 11 10  2  0  0  0  0
 12 13  1  0  0  0  0
 14 15  1  0  0  0  0
 16 19  1  0  0  0  0
 17 22  1  0  0  0  0
 17 24  1  0  0  0  0
 18 17  2  0  0  0  0
 19 20  2  0  0  0  0
 19 18  1  0  0  0  0
 20 21  1  0  0  0  0
 21 22  2  0  0  0  0
 22 25  1  0  0  0  0
 23 24  1  0  0  0  0
 25 26  1  0  0  0  0
M  END
>  <MODEL>
4

>  <REMARK>
 VINA RESULT:    -5.971      6.148      9.179
 INTER + INTRA:         -11.250
 INTER:                  -9.615
 INTRA:                  -1.635
 UNBOUND:                -2.487
  Name = CHEMBL1976696
  13 active torsions:
  status: ('A' for Active; 'I' for Inactive)
    1  A    between atoms: C_1  and  O_2
    2  A    between atoms: O_2  and  C_3
    3  A    between atoms: C_5  and  C_6
    4  A    between atoms: C_6  and  C_7
    5  A    between atoms: C_7  and  C_8
    6  A    between atoms: C_7  and  C_9
    7  A    between atoms: C_9  and  C_10
    8  A    between atoms: C_9  and  C_11
    9  A    between atoms: C_11  and  C_12
   10  A    between atoms: C_15  and  O_16
   11  A    between atoms: C_17  and  O_18
   12  A    between atoms: O_18  and  C_19
   13  A    between atoms: C_23  and  O_24
                            x       y       z     vdW  Elec       q    Type
                         _______ _______ _______ _____ _____    ______ ____

>  <TORSDO>
F 9

>  <SCORE>
-5.971

>  <RMSD_LB>
6.148

>  <RMSD_UB>
9.179

$$$$
CHEMBL1976696
 OpenBabel10172500193D

 26 27  0  0  1  0  0  0  0  0999 V2000
  146.0220  138.9600  153.5180 C   0  0  1  0  0  3  0  0  0  0  0  0
  146.1950  138.7900  155.0360 C   0  0  0  0  0  1  0  0  0  0  0  0
  145.2780  137.7320  152.9030 C   0  0  1  0  0  3  0  0  0  0  0  0
  146.2230  136.5660  152.5640 C   0  0  0  0  0  1  0  0  0  0  0  0
  144.1340  137.1970  153.7980 C   0  0  0  0  0  2  0  0  0  0  0  0
  142.7480  137.6940  153.4520 C   0  0  0  0  0  0  0  0  0  0  0  0
  142.2940  137.6870  152.1310 C   0  0  0  0  0  3  0  0  0  0  0  0
  140.9840  138.0680  151.8330 C   0  0  0  0  0  3  0  0  0  0  0  0
  140.1120  138.4640  152.8530 C   0  0  0  0  0  0  0  0  0  0  0  0
  140.5540  138.5140  154.1790 C   0  0  0  0  0  0  0  0  0  0  0  0
  141.8710  138.1210  154.4620 C   0  0  0  0  0  3  0  0  0  0  0  0
  138.8260  138.7840  152.5140 O   0  0  0  0  0  0  0  0  0  0  0  0
  138.1540  138.1330  152.5570 H   0  0  0  0  0  0  0  0  0  0  0  0
  139.8610  138.8950  155.2950 O   0  0  0  0  0  0  0  0  0  0  0  0
  139.1780  137.8950  156.0370 C   0  0  0  0  0  1  0  0  0  0  0  0
  145.3430  140.3060  153.1640 C   0  0  0  0  0  2  0  0  0  0  0  0
  145.4820  140.6900  149.3650 C   0  0  0  0  0  0  0  0  0  0  0  0
  145.1420  140.2270  150.6420 C   0  0  0  0  0  3  0  0  0  0  0  0
  145.6700  140.8430  151.7880 C   0  0  0  0  0  0  0  0  0  0  0  0
  146.5010  141.9590  151.6530 C   0  0  0  0  0  3  0  0  0  0  0  0
  146.8260  142.4450  150.3880 C   0  0  0  0  0  3  0  0  0  0  0  0
  146.3260  141.8020  149.2550 C   0  0  0  0  0  0  0  0  0  0  0  0
  144.2510  138.9550  148.2940 C   0  0  0  0  0  1  0  0  0  0  0  0
  145.0560  140.1230  148.1940 O   0  0  0  0  0  0  0  0  0  0  0  0
  146.6670  142.2690  148.0120 O   0  0  0  0  0  0  0  0  0  0  0  0
  146.0370  142.2580  147.3180 H   0  0  0  0  0  0  0  0  0  0  0  0
  1  2  1  1  0  0  0
  3  4  1  1  0  0  0
  3  1  1  0  0  0  0
  3  5  1  0  0  0  0
  6  5  1  0  0  0  0
  6 11  1  0  0  0  0
  7  6  2  0  0  0  0
  8  7  1  0  0  0  0
  8  9  2  0  0  0  0
  9 10  1  0  0  0  0
 10 11  2  0  0  0  0
 10 14  1  0  0  0  0
 12 13  1  0  0  0  0
 12  9  1  0  0  0  0
 14 15  1  0  0  0  0
 16  1  1  0  0  0  0
 17 18  1  0  0  0  0
 18 19  2  0  0  0  0
 19 16  1  0  0  0  0
 20 19  1  0  0  0  0
 21 20  2  0  0  0  0
 22 17  2  0  0  0  0
 22 21  1  0  0  0  0
 24 23  1  0  0  0  0
 24 17  1  0  0  0  0
 25 22  1  0  0  0  0
 26 25  1  0  0  0  0
M  END
>  <MODEL>
5

>  <REMARK>
 VINA RESULT:    -5.843      2.689      4.211
 INTER + INTRA:         -11.063
 INTER:                  -9.662
 INTRA:                  -1.401
 UNBOUND:                -2.487
  Name = CHEMBL1976696
  13 active torsions:
  status: ('A' for Active; 'I' for Inactive)
    1  A    between atoms: C_1  and  O_2
    2  A    between atoms: O_2  and  C_3
    3  A    between atoms: C_5  and  C_6
    4  A    between atoms: C_6  and  C_7
    5  A    between atoms: C_7  and  C_8
    6  A    between atoms: C_7  and  C_9
    7  A    between atoms: C_9  and  C_10
    8  A    between atoms: C_9  and  C_11
    9  A    between atoms: C_11  and  C_12
   10  A    between atoms: C_15  and  O_16
   11  A    between atoms: C_17  and  O_18
   12  A    between atoms: O_18  and  C_19
   13  A    between atoms: C_23  and  O_24
                            x       y       z     vdW  Elec       q    Type
                         _______ _______ _______ _____ _____    ______ ____

>  <TORSDO>
F 9

>  <SCORE>
-5.843

>  <RMSD_LB>
2.689

>  <RMSD_UB>
4.211

$$$$
CHEMBL1976696
 OpenBabel10172500193D

 26 27  0  0  1  0  0  0  0  0999 V2000
  138.6160  135.8510  148.6670 C   0  0  1  0  0  3  0  0  0  0  0  0
  139.0150  136.6490  147.4150 C   0  0  0  0  0  1  0  0  0  0  0  0
  137.3850  136.5050  149.3730 C   0  0  1  0  0  3  0  0  0  0  0  0
  137.7270  137.0910  150.7530 C   0  0  0  0  0  1  0  0  0  0  0  0
  136.7040  137.6040  148.5230 C   0  0  0  0  0  2  0  0  0  0  0  0
  135.3500  137.2440  147.9540 C   0  0  0  0  0  0  0  0  0  0  0  0
  134.2770  136.9370  148.7950 C   0  0  0  0  0  3  0  0  0  0  0  0
  133.0110  136.6890  148.2630 C   0  0  0  0  0  3  0  0  0  0  0  0
  132.8010  136.7420  146.8800 C   0  0  0  0  0  0  0  0  0  0  0  0
  133.8660  137.0110  146.0150 C   0  0  0  0  0  0  0  0  0  0  0  0
  135.1310  137.2650  146.5670 C   0  0  0  0  0  3  0  0  0  0  0  0
  131.5320  136.5350  146.4130 O   0  0  0  0  0  0  0  0  0  0  0  0
  131.4010  136.1320  145.5770 H   0  0  0  0  0  0  0  0  0  0  0  0
  133.8590  137.0790  144.6490 O   0  0  0  0  0  0  0  0  0  0  0  0
  135.0920  137.2920  143.9790 C   0  0  0  0  0  1  0  0  0  0  0  0
  138.3920  134.3520  148.3470 C   0  0  0  0  0  2  0  0  0  0  0  0
  134.7640  133.3260  147.7280 C   0  0  0  0  0  0  0  0  0  0  0  0
  135.9560  133.6660  148.3790 C   0  0  0  0  0  3  0  0  0  0  0  0
  137.0920  134.0390  147.6420 C   0  0  0  0  0  0  0  0  0  0  0  0
  137.0140  134.1210  146.2480 C   0  0  0  0  0  3  0  0  0  0  0  0
  135.8260  133.8100  145.5900 C   0  0  0  0  0  3  0  0  0  0  0  0
  134.7160  133.4040  146.3300 C   0  0  0  0  0  0  0  0  0  0  0  0
  133.4060  133.3770  149.6840 C   0  0  0  0  0  1  0  0  0  0  0  0
  133.6250  132.9050  148.3610 O   0  0  0  0  0  0  0  0  0  0  0  0
  133.5550  133.0770  145.6770 O   0  0  0  0  0  0  0  0  0  0  0  0
  132.8190  133.6560  145.7120 H   0  0  0  0  0  0  0  0  0  0  0  0
  1  2  1  6  0  0  0
  1  3  1  0  0  0  0
  3  4  1  1  0  0  0
  5  3  1  0  0  0  0
  6  5  1  0  0  0  0
  6  7  1  0  0  0  0
  8  7  2  0  0  0  0
  9  8  1  0  0  0  0
 10 11  1  0  0  0  0
 10  9  2  0  0  0  0
 11  6  2  0  0  0  0
 12  9  1  0  0  0  0
 13 12  1  0  0  0  0
 14 10  1  0  0  0  0
 15 14  1  0  0  0  0
 16  1  1  0  0  0  0
 17 24  1  0  0  0  0
 17 18  1  0  0  0  0
 19 16  1  0  0  0  0
 19 18  2  0  0  0  0
 20 19  1  0  0  0  0
 21 20  2  0  0  0  0
 21 22  1  0  0  0  0
 22 17  2  0  0  0  0
 24 23  1  0  0  0  0
 25 26  1  0  0  0  0
 25 22  1  0  0  0  0
M  END
>  <MODEL>
6

>  <REMARK>
 VINA RESULT:    -5.683     10.055     13.072
 INTER + INTRA:         -10.829
 INTER:                  -8.323
 INTRA:                  -2.505
 UNBOUND:                -2.487
  Name = CHEMBL1976696
  13 active torsions:
  status: ('A' for Active; 'I' for Inactive)
    1  A    between atoms: C_1  and  O_2
    2  A    between atoms: O_2  and  C_3
    3  A    between atoms: C_5  and  C_6
    4  A    between atoms: C_6  and  C_7
    5  A    between atoms: C_7  and  C_8
    6  A    between atoms: C_7  and  C_9
    7  A    between atoms: C_9  and  C_10
    8  A    between atoms: C_9  and  C_11
    9  A    between atoms: C_11  and  C_12
   10  A    between atoms: C_15  and  O_16
   11  A    between atoms: C_17  and  O_18
   12  A    between atoms: O_18  and  C_19
   13  A    between atoms: C_23  and  O_24
                            x       y       z     vdW  Elec       q    Type
                         _______ _______ _______ _____ _____    ______ ____

>  <TORSDO>
F 9

>  <SCORE>
-5.683

>  <RMSD_LB>
10.055

>  <RMSD_UB>
13.072

$$$$
CHEMBL1976696
 OpenBabel10172500193D

 26 27  0  0  1  0  0  0  0  0999 V2000
  138.3350  136.9390  149.4290 C   0  0  1  0  0  3  0  0  0  0  0  0
  137.8770  138.2500  148.7680 C   0  0  0  0  0  1  0  0  0  0  0  0
  138.2920  135.7580  148.4080 C   0  0  1  0  0  3  0  0  0  0  0  0
  139.6870  135.3460  147.9090 C   0  0  0  0  0  1  0  0  0  0  0  0
  137.5710  134.5020  148.9540 C   0  0  0  0  0  2  0  0  0  0  0  0
  136.1210  134.3560  148.5510 C   0  0  0  0  0  0  0  0  0  0  0  0
  135.7550  133.5440  147.4740 C   0  0  0  0  0  3  0  0  0  0  0  0
  134.4080  133.3490  147.1630 C   0  0  0  0  0  3  0  0  0  0  0  0
  133.4090  133.9640  147.9250 C   0  0  0  0  0  0  0  0  0  0  0  0
  133.7510  134.8090  148.9850 C   0  0  0  0  0  0  0  0  0  0  0  0
  135.1090  134.9890  149.2890 C   0  0  0  0  0  3  0  0  0  0  0  0
  132.1040  133.7050  147.6070 O   0  0  0  0  0  0  0  0  0  0  0  0
  131.6100  133.0920  148.1170 H   0  0  0  0  0  0  0  0  0  0  0  0
  132.9220  135.5110  149.8190 O   0  0  0  0  0  0  0  0  0  0  0  0
  132.3950  134.8480  150.9580 C   0  0  0  0  0  1  0  0  0  0  0  0
  139.7200  137.0900  150.1070 C   0  0  0  0  0  2  0  0  0  0  0  0
  138.4050  137.8450  153.6140 C   0  0  0  0  0  0  0  0  0  0  0  0
  138.4590  137.4510  152.2710 C   0  0  0  0  0  3  0  0  0  0  0  0
  139.6760  137.4660  151.5710 C   0  0  0  0  0  0  0  0  0  0  0  0
  140.8520  137.8280  152.2350 C   0  0  0  0  0  3  0  0  0  0  0  0
  140.8150  138.1990  153.5790 C   0  0  0  0  0  3  0  0  0  0  0  0
  139.5940  138.2170  154.2540 C   0  0  0  0  0  0  0  0  0  0  0  0
  136.7500  136.6860  154.8740 C   0  0  0  0  0  1  0  0  0  0  0  0
  137.2590  137.9100  154.3600 O   0  0  0  0  0  0  0  0  0  0  0  0
  139.5600  138.6030  155.5690 O   0  0  0  0  0  0  0  0  0  0  0  0
  138.7370  138.7060  156.0050 H   0  0  0  0  0  0  0  0  0  0  0  0
  1  2  1  6  0  0  0
  1 16  1  0  0  0  0
  3  4  1  1  0  0  0
  3  5  1  0  0  0  0
  3  1  1  0  0  0  0
  6  5  1  0  0  0  0
  6 11  1  0  0  0  0
  7  6  2  0  0  0  0
  8  7  1  0  0  0  0
  8  9  2  0  0  0  0
  9 10  1  0  0  0  0
 10 11  2  0  0  0  0
 10 14  1  0  0  0  0
 12  9  1  0  0  0  0
 12 13  1  0  0  0  0
 14 15  1  0  0  0  0
 16 19  1  0  0  0  0
 17 22  1  0  0  0  0
 17 24  1  0  0  0  0
 18 17  2  0  0  0  0
 19 20  2  0  0  0  0
 19 18  1  0  0  0  0
 20 21  1  0  0  0  0
 21 22  2  0  0  0  0
 22 25  1  0  0  0  0
 24 23  1  0  0  0  0
 25 26  1  0  0  0  0
M  END
>  <MODEL>
7

>  <REMARK>
 VINA RESULT:    -5.599      7.286     10.061
 INTER + INTRA:         -10.705
 INTER:                  -9.573
 INTRA:                  -1.131
 UNBOUND:                -2.487
  Name = CHEMBL1976696
  13 active torsions:
  status: ('A' for Active; 'I' for Inactive)
    1  A    between atoms: C_1  and  O_2
    2  A    between atoms: O_2  and  C_3
    3  A    between atoms: C_5  and  C_6
    4  A    between atoms: C_6  and  C_7
    5  A    between atoms: C_7  and  C_8
    6  A    between atoms: C_7  and  C_9
    7  A    between atoms: C_9  and  C_10
    8  A    between atoms: C_9  and  C_11
    9  A    between atoms: C_11  and  C_12
   10  A    between atoms: C_15  and  O_16
   11  A    between atoms: C_17  and  O_18
   12  A    between atoms: O_18  and  C_19
   13  A    between atoms: C_23  and  O_24
                            x       y       z     vdW  Elec       q    Type
                         _______ _______ _______ _____ _____    ______ ____

>  <TORSDO>
F 9

>  <SCORE>
-5.599

>  <RMSD_LB>
7.286

>  <RMSD_UB>
10.061

$$$$
CHEMBL1976696
 OpenBabel10172500193D

 26 27  0  0  1  0  0  0  0  0999 V2000
  145.9040  138.8380  154.0090 C   0  0  1  0  0  3  0  0  0  0  0  0
  144.9000  139.5690  154.9160 C   0  0  0  0  0  1  0  0  0  0  0  0
  145.2610  137.5560  153.3910 C   0  0  1  0  0  3  0  0  0  0  0  0
  145.9870  136.2640  153.8030 C   0  0  0  0  0  1  0  0  0  0  0  0
  143.7570  137.4040  153.7190 C   0  0  0  0  0  2  0  0  0  0  0  0
  142.8330  137.3250  152.5250 C   0  0  0  0  0  0  0  0  0  0  0  0
  141.4880  137.6900  152.6340 C   0  0  0  0  0  3  0  0  0  0  0  0
  140.6650  137.6940  151.5060 C   0  0  0  0  0  3  0  0  0  0  0  0
  141.1760  137.3330  150.2540 C   0  0  0  0  0  0  0  0  0  0  0  0
  142.5080  136.9300  150.1270 C   0  0  0  0  0  0  0  0  0  0  0  0
  143.3240  136.9370  151.2690 C   0  0  0  0  0  3  0  0  0  0  0  0
  140.3390  137.3970  149.1750 O   0  0  0  0  0  0  0  0  0  0  0  0
  140.1830  136.6310  148.6570 H   0  0  0  0  0  0  0  0  0  0  0  0
  143.1720  136.5210  149.0020 O   0  0  0  0  0  0  0  0  0  0  0  0
  143.0970  135.1510  148.6360 C   0  0  0  0  0  1  0  0  0  0  0  0
  146.5010  139.7810  152.9350 C   0  0  0  0  0  2  0  0  0  0  0  0
  145.5760  139.2540  149.2650 C   0  0  0  0  0  0  0  0  0  0  0  0
  146.2510  139.1780  150.4900 C   0  0  0  0  0  3  0  0  0  0  0  0
  145.7400  139.8210  151.6280 C   0  0  0  0  0  0  0  0  0  0  0  0
  144.5200  140.5000  151.5490 C   0  0  0  0  0  3  0  0  0  0  0  0
  143.8260  140.5620  150.3420 C   0  0  0  0  0  3  0  0  0  0  0  0
  144.3620  139.9510  149.2090 C   0  0  0  0  0  0  0  0  0  0  0  0
  147.1270  137.8090  148.1800 C   0  0  0  0  0  1  0  0  0  0  0  0
  146.0230  138.7010  148.0950 O   0  0  0  0  0  0  0  0  0  0  0  0
  143.6870  140.0330  148.0190 O   0  0  0  0  0  0  0  0  0  0  0  0
  143.2000  139.2960  147.7040 H   0  0  0  0  0  0  0  0  0  0  0  0
  1  2  1  6  0  0  0
  3  5  1  0  0  0  0
  3  4  1  1  0  0  0
  3  1  1  0  0  0  0
  6  7  1  0  0  0  0
  6  5  1  0  0  0  0
  8  7  2  0  0  0  0
  9  8  1  0  0  0  0
 10  9  2  0  0  0  0
 10 11  1  0  0  0  0
 11  6  2  0  0  0  0
 12  9  1  0  0  0  0
 13 12  1  0  0  0  0
 14 10  1  0  0  0  0
 15 14  1  0  0  0  0
 16  1  1  0  0  0  0
 17 18  1  0  0  0  0
 18 19  2  0  0  0  0
 19 16  1  0  0  0  0
 20 19  1  0  0  0  0
 21 20  2  0  0  0  0
 22 17  2  0  0  0  0
 22 21  1  0  0  0  0
 24 23  1  0  0  0  0
 24 17  1  0  0  0  0
 25 22  1  0  0  0  0
 26 25  1  0  0  0  0
M  END
>  <MODEL>
8

>  <REMARK>
 VINA RESULT:    -5.514      3.456      5.306
 INTER + INTRA:         -10.580
 INTER:                  -8.208
 INTRA:                  -2.372
 UNBOUND:                -2.487
  Name = CHEMBL1976696
  13 active torsions:
  status: ('A' for Active; 'I' for Inactive)
    1  A    between atoms: C_1  and  O_2
    2  A    between atoms: O_2  and  C_3
    3  A    between atoms: C_5  and  C_6
    4  A    between atoms: C_6  and  C_7
    5  A    between atoms: C_7  and  C_8
    6  A    between atoms: C_7  and  C_9
    7  A    between atoms: C_9  and  C_10
    8  A    between atoms: C_9  and  C_11
    9  A    between atoms: C_11  and  C_12
   10  A    between atoms: C_15  and  O_16
   11  A    between atoms: C_17  and  O_18
   12  A    between atoms: O_18  and  C_19
   13  A    between atoms: C_23  and  O_24
                            x       y       z     vdW  Elec       q    Type
                         _______ _______ _______ _____ _____    ______ ____

>  <TORSDO>
F 9

>  <SCORE>
-5.514

>  <RMSD_LB>
3.456

>  <RMSD_UB>
5.306

$$$$
CHEMBL1976696
 OpenBabel10172500193D

 26 27  0  0  1  0  0  0  0  0999 V2000
  138.7060  137.0120  147.5950 C   0  0  1  0  0  3  0  0  0  0  0  0
  137.9310  137.9840  146.6900 C   0  0  0  0  0  1  0  0  0  0  0  0
  137.8090  136.5160  148.7740 C   0  0  1  0  0  3  0  0  0  0  0  0
  138.3860  136.8700  150.1550 C   0  0  0  0  0  1  0  0  0  0  0  0
  136.3530  137.0350  148.6970 C   0  0  0  0  0  2  0  0  0  0  0  0
  135.3210  136.0190  148.2650 C   0  0  0  0  0  0  0  0  0  0  0  0
  134.7340  136.0880  146.9990 C   0  0  0  0  0  3  0  0  0  0  0  0
  133.8450  135.0970  146.5780 C   0  0  0  0  0  3  0  0  0  0  0  0
  133.5300  134.0240  147.4200 C   0  0  0  0  0  0  0  0  0  0  0  0
  134.0760  133.9520  148.7050 C   0  0  0  0  0  0  0  0  0  0  0  0
  134.9730  134.9530  149.1090 C   0  0  0  0  0  3  0  0  0  0  0  0
  132.6880  133.0570  146.9430 O   0  0  0  0  0  0  0  0  0  0  0  0
  132.7330  132.8000  146.0430 H   0  0  0  0  0  0  0  0  0  0  0  0
  133.8680  133.0030  149.6680 O   0  0  0  0  0  0  0  0  0  0  0  0
  133.7580  133.4280  151.0190 C   0  0  0  0  0  1  0  0  0  0  0  0
  139.3270  135.8450  146.7870 C   0  0  0  0  0  2  0  0  0  0  0  0
  136.8110  133.8500  144.7160 C   0  0  0  0  0  0  0  0  0  0  0  0
  137.7540  134.8140  145.0940 C   0  0  0  0  0  3  0  0  0  0  0  0
  138.3490  134.7720  146.3650 C   0  0  0  0  0  0  0  0  0  0  0  0
  138.0350  133.7280  147.2410 C   0  0  0  0  0  3  0  0  0  0  0  0
  137.1160  132.7480  146.8670 C   0  0  0  0  0  3  0  0  0  0  0  0
  136.5030  132.8220  145.6170 C   0  0  0  0  0  0  0  0  0  0  0  0
  136.9350  133.8310  142.3390 C   0  0  0  0  0  1  0  0  0  0  0  0
  136.1450  133.8410  143.5210 O   0  0  0  0  0  0  0  0  0  0  0  0
  135.5830  131.8690  145.2620 O   0  0  0  0  0  0  0  0  0  0  0  0
  135.2860  131.2460  145.8950 H   0  0  0  0  0  0  0  0  0  0  0  0
  1  2  1  6  0  0  0
  1  3  1  0  0  0  0
  3  4  1  1  0  0  0
  5  3  1  0  0  0  0
  6  5  1  0  0  0  0
  6 11  1  0  0  0  0
  7  6  2  0  0  0  0
  8  7  1  0  0  0  0
  8  9  2  0  0  0  0
  9 10  1  0  0  0  0
 10 11  2  0  0  0  0
 10 14  1  0  0  0  0
 12  9  1  0  0  0  0
 13 12  1  0  0  0  0
 14 15  1  0  0  0  0
 16  1  1  0  0  0  0
 17 18  2  0  0  0  0
 17 22  1  0  0  0  0
 18 19  1  0  0  0  0
 19 16  1  0  0  0  0
 19 20  2  0  0  0  0
 21 20  1  0  0  0  0
 22 21  2  0  0  0  0
 23 24  1  0  0  0  0
 24 17  1  0  0  0  0
 25 22  1  0  0  0  0
 25 26  1  0  0  0  0
M  END
>  <MODEL>
9

>  <REMARK>
 VINA RESULT:    -5.279      9.744     12.648
 INTER + INTRA:         -10.235
 INTER:                  -7.748
 INTRA:                  -2.487
 UNBOUND:                -2.487
  Name = CHEMBL1976696
  13 active torsions:
  status: ('A' for Active; 'I' for Inactive)
    1  A    between atoms: C_1  and  O_2
    2  A    between atoms: O_2  and  C_3
    3  A    between atoms: C_5  and  C_6
    4  A    between atoms: C_6  and  C_7
    5  A    between atoms: C_7  and  C_8
    6  A    between atoms: C_7  and  C_9
    7  A    between atoms: C_9  and  C_10
    8  A    between atoms: C_9  and  C_11
    9  A    between atoms: C_11  and  C_12
   10  A    between atoms: C_15  and  O_16
   11  A    between atoms: C_17  and  O_18
   12  A    between atoms: O_18  and  C_19
   13  A    between atoms: C_23  and  O_24
                            x       y       z     vdW  Elec       q    Type
                         _______ _______ _______ _____ _____    ______ ____

>  <TORSDO>
F 9

>  <SCORE>
-5.279

>  <RMSD_LB>
9.744

>  <RMSD_UB>
12.648

$$$$
