CHEMBL5271840
 OpenBabel10162523433D

 25 26  0  0  0  0  0  0  0  0999 V2000
  147.5220  138.0070  152.4580 C   0  0  0  0  0  0  0  0  0  0  0  0
  147.0960  136.8960  152.7810 O   0  0  0  0  0  0  0  0  0  0  0  0
  147.0260  138.7330  151.2220 C   0  0  0  0  0  2  0  0  0  0  0  0
  145.9490  137.9210  150.5040 C   0  0  0  0  0  2  0  0  0  0  0  0
  142.3740  138.4140  151.7740 C   0  0  0  0  0  0  0  0  0  0  0  0
  143.6720  137.9160  151.6190 C   0  0  0  0  0  3  0  0  0  0  0  0
  144.5610  138.4860  150.6890 C   0  0  0  0  0  0  0  0  0  0  0  0
  144.1280  139.5560  149.8980 C   0  0  0  0  0  3  0  0  0  0  0  0
  142.8330  140.0560  150.0360 C   0  0  0  0  0  3  0  0  0  0  0  0
  141.9670  139.4860  150.9700 C   0  0  0  0  0  0  0  0  0  0  0  0
  141.6980  138.1230  154.0410 C   0  0  0  0  0  1  0  0  0  0  0  0
  141.4470  137.9280  152.6570 O   0  0  0  0  0  0  0  0  0  0  0  0
  140.6950  139.9770  151.0990 O   0  0  0  0  0  0  0  0  0  0  0  0
  140.0750  139.5360  151.6480 H   0  0  0  0  0  0  0  0  0  0  0  0
  148.6280  138.6410  153.2540 C   0  0  0  0  0  2  0  0  0  0  0  0
  148.1830  139.5180  154.4000 C   0  0  0  0  0  0  0  0  0  0  0  0
  147.4560  139.1050  155.3030 O   0  0  0  0  0  0  0  0  0  0  0  0
  148.6410  140.9610  154.3800 C   0  0  0  0  0  2  0  0  0  0  0  0
  147.4540  141.8920  154.1740 C   0  0  0  0  0  2  0  0  0  0  0  0
  147.1400  142.1230  152.7200 C   0  0  0  0  0  0  0  0  0  0  0  0
  145.8190  142.3350  152.3050 C   0  0  0  0  0  3  0  0  0  0  0  0
  145.5370  142.5950  150.9640 C   0  0  0  0  0  3  0  0  0  0  0  0
  146.5690  142.6380  150.0280 C   0  0  0  0  0  3  0  0  0  0  0  0
  147.8840  142.4020  150.4310 C   0  0  0  0  0  3  0  0  0  0  0  0
  148.1680  142.1430  151.7700 C   0  0  0  0  0  3  0  0  0  0  0  0
  1  2  2  0  0  0  0
  1 15  1  0  0  0  0
  3  1  1  0  0  0  0
  4  7  1  0  0  0  0
  4  3  1  0  0  0  0
  5 12  1  0  0  0  0
  6  5  1  0  0  0  0
  7  6  2  0  0  0  0
  8  9  2  0  0  0  0
  8  7  1  0  0  0  0
  9 10  1  0  0  0  0
 10 13  1  0  0  0  0
 10  5  2  0  0  0  0
 12 11  1  0  0  0  0
 13 14  1  0  0  0  0
 15 16  1  0  0  0  0
 16 17  2  0  0  0  0
 18 16  1  0  0  0  0
 19 18  1  0  0  0  0
 20 19  1  0  0  0  0
 21 20  1  0  0  0  0
 22 21  2  0  0  0  0
 23 24  2  0  0  0  0
 23 22  1  0  0  0  0
 24 25  1  0  0  0  0
 25 20  2  0  0  0  0
M  END
>  <MODEL>
1

>  <REMARK>
 VINA RESULT:    -7.190      0.000      0.000
 INTER + INTRA:         -12.980
 INTER:                 -10.759
 INTRA:                  -2.221
 UNBOUND:                -1.797
  Name = CHEMBL5271840
  11 active torsions:
  status: ('A' for Active; 'I' for Inactive)
    1  A    between atoms: C_1  and  O_2
    2  A    between atoms: O_2  and  C_3
    3  A    between atoms: C_5  and  C_6
    4  A    between atoms: C_6  and  C_7
    5  A    between atoms: C_7  and  C_8
    6  A    between atoms: C_8  and  C_10
    7  A    between atoms: C_10  and  C_11
    8  A    between atoms: C_11  and  C_13
    9  A    between atoms: C_13  and  C_14
   10  A    between atoms: C_14  and  C_15
   11  A    between atoms: C_23  and  O_24
                            x       y       z     vdW  Elec       q    Type
                         _______ _______ _______ _____ _____    ______ ____

>  <TORSDO>
F 10

>  <SCORE>
-7.190

>  <RMSD_LB>
0.000

>  <RMSD_UB>
0.000

$$$$
CHEMBL5271840
 OpenBabel10162523433D

 25 26  0  0  0  0  0  0  0  0999 V2000
  147.7640  138.0650  152.9910 C   0  0  0  0  0  0  0  0  0  0  0  0
  148.0330  137.1830  153.8090 O   0  0  0  0  0  0  0  0  0  0  0  0
  146.6430  137.9140  151.9800 C   0  0  0  0  0  2  0  0  0  0  0  0
  145.5390  137.0050  152.5170 C   0  0  0  0  0  2  0  0  0  0  0  0
  142.0500  138.2600  153.4560 C   0  0  0  0  0  0  0  0  0  0  0  0
  143.0830  137.5380  152.8500 C   0  0  0  0  0  3  0  0  0  0  0  0
  144.4270  137.7650  153.2000 C   0  0  0  0  0  0  0  0  0  0  0  0
  144.7290  138.7400  154.1570 C   0  0  0  0  0  3  0  0  0  0  0  0
  143.7080  139.4730  154.7620 C   0  0  0  0  0  3  0  0  0  0  0  0
  142.3800  139.2290  154.4110 C   0  0  0  0  0  0  0  0  0  0  0  0
  140.1730  138.8560  152.1120 C   0  0  0  0  0  1  0  0  0  0  0  0
  140.7170  138.1010  153.1840 O   0  0  0  0  0  0  0  0  0  0  0  0
  141.3800  139.9540  155.0040 O   0  0  0  0  0  0  0  0  0  0  0  0
  141.0970  139.7410  155.8720 H   0  0  0  0  0  0  0  0  0  0  0  0
  148.6170  139.3010  152.9210 C   0  0  0  0  0  2  0  0  0  0  0  0
  148.0660  140.5110  153.6360 C   0  0  0  0  0  0  0  0  0  0  0  0
  147.6630  140.4650  154.7980 O   0  0  0  0  0  0  0  0  0  0  0  0
  147.9900  141.8000  152.8460 C   0  0  0  0  0  2  0  0  0  0  0  0
  146.5380  142.1730  152.5760 C   0  0  0  0  0  2  0  0  0  0  0  0
  145.9680  141.4640  151.3780 C   0  0  0  0  0  0  0  0  0  0  0  0
  144.6350  141.0330  151.3760 C   0  0  0  0  0  3  0  0  0  0  0  0
  144.0960  140.4180  150.2460 C   0  0  0  0  0  3  0  0  0  0  0  0
  144.8850  140.2230  149.1140 C   0  0  0  0  0  3  0  0  0  0  0  0
  146.2200  140.6260  149.1180 C   0  0  0  0  0  3  0  0  0  0  0  0
  146.7610  141.2420  150.2460 C   0  0  0  0  0  3  0  0  0  0  0  0
  1  2  2  0  0  0  0
  3  4  1  0  0  0  0
  3  1  1  0  0  0  0
  4  7  1  0  0  0  0
  5 10  1  0  0  0  0
  6  7  1  0  0  0  0
  6  5  2  0  0  0  0
  7  8  2  0  0  0  0
  8  9  1  0  0  0  0
 10  9  2  0  0  0  0
 10 13  1  0  0  0  0
 11 12  1  0  0  0  0
 12  5  1  0  0  0  0
 13 14  1  0  0  0  0
 15  1  1  0  0  0  0
 15 16  1  0  0  0  0
 16 17  2  0  0  0  0
 18 16  1  0  0  0  0
 19 18  1  0  0  0  0
 20 19  1  0  0  0  0
 21 20  1  0  0  0  0
 22 21  2  0  0  0  0
 23 24  2  0  0  0  0
 23 22  1  0  0  0  0
 24 25  1  0  0  0  0
 25 20  2  0  0  0  0
M  END
>  <MODEL>
2

>  <REMARK>
 VINA RESULT:    -6.623      1.650      2.474
 INTER + INTRA:         -12.099
 INTER:                  -9.632
 INTRA:                  -2.467
 UNBOUND:                -1.797
  Name = CHEMBL5271840
  11 active torsions:
  status: ('A' for Active; 'I' for Inactive)
    1  A    between atoms: C_1  and  O_2
    2  A    between atoms: O_2  and  C_3
    3  A    between atoms: C_5  and  C_6
    4  A    between atoms: C_6  and  C_7
    5  A    between atoms: C_7  and  C_8
    6  A    between atoms: C_8  and  C_10
    7  A    between atoms: C_10  and  C_11
    8  A    between atoms: C_11  and  C_13
    9  A    between atoms: C_13  and  C_14
   10  A    between atoms: C_14  and  C_15
   11  A    between atoms: C_23  and  O_24
                            x       y       z     vdW  Elec       q    Type
                         _______ _______ _______ _____ _____    ______ ____

>  <TORSDO>
F 10

>  <SCORE>
-6.623

>  <RMSD_LB>
1.650

>  <RMSD_UB>
2.474

$$$$
CHEMBL5271840
 OpenBabel10162523433D

 25 26  0  0  0  0  0  0  0  0999 V2000
  142.9170  139.2630  149.3450 C   0  0  0  0  0  0  0  0  0  0  0  0
  142.2940  138.8950  148.3460 O   0  0  0  0  0  0  0  0  0  0  0  0
  142.6120  138.7240  150.7300 C   0  0  0  0  0  2  0  0  0  0  0  0
  143.0570  139.7080  151.8110 C   0  0  0  0  0  2  0  0  0  0  0  0
  146.0670  137.6770  153.0150 C   0  0  0  0  0  0  0  0  0  0  0  0
  145.0650  138.2100  152.1960 C   0  0  0  0  0  3  0  0  0  0  0  0
  144.1560  139.1620  152.6920 C   0  0  0  0  0  0  0  0  0  0  0  0
  144.2490  139.5650  154.0280 C   0  0  0  0  0  3  0  0  0  0  0  0
  145.2380  139.0350  154.8580 C   0  0  0  0  0  3  0  0  0  0  0  0
  146.1380  138.0980  154.3480 C   0  0  0  0  0  0  0  0  0  0  0  0
  147.7600  137.0540  151.4570 C   0  0  0  0  0  1  0  0  0  0  0  0
  146.9970  136.7540  152.6160 O   0  0  0  0  0  0  0  0  0  0  0  0
  147.1040  137.5760  155.1660 O   0  0  0  0  0  0  0  0  0  0  0  0
  148.0060  137.6220  154.9160 H   0  0  0  0  0  0  0  0  0  0  0  0
  143.9580  140.3400  149.2190 C   0  0  0  0  0  2  0  0  0  0  0  0
  145.2760  139.9030  148.6250 C   0  0  0  0  0  0  0  0  0  0  0  0
  145.3480  139.2800  147.5650 O   0  0  0  0  0  0  0  0  0  0  0  0
  146.5260  140.2300  149.4120 C   0  0  0  0  0  2  0  0  0  0  0  0
  146.3770  141.5730  150.1130 C   0  0  0  0  0  2  0  0  0  0  0  0
  146.8520  141.5400  151.5410 C   0  0  0  0  0  0  0  0  0  0  0  0
  147.9580  140.7590  151.9040 C   0  0  0  0  0  3  0  0  0  0  0  0
  148.4240  140.7680  153.2180 C   0  0  0  0  0  3  0  0  0  0  0  0
  147.7860  141.5490  154.1800 C   0  0  0  0  0  3  0  0  0  0  0  0
  146.6690  142.3080  153.8320 C   0  0  0  0  0  3  0  0  0  0  0  0
  146.2020  142.3020  152.5190 C   0  0  0  0  0  3  0  0  0  0  0  0
  1  3  1  0  0  0  0
  2  1  2  0  0  0  0
  3  4  1  0  0  0  0
  4  7  1  0  0  0  0
  5 10  1  0  0  0  0
  6  7  1  0  0  0  0
  6  5  2  0  0  0  0
  7  8  2  0  0  0  0
  8  9  1  0  0  0  0
 10  9  2  0  0  0  0
 10 13  1  0  0  0  0
 11 12  1  0  0  0  0
 12  5  1  0  0  0  0
 14 13  1  0  0  0  0
 15  1  1  0  0  0  0
 16 15  1  0  0  0  0
 16 18  1  0  0  0  0
 17 16  2  0  0  0  0
 18 19  1  0  0  0  0
 19 20  1  0  0  0  0
 20 21  2  0  0  0  0
 20 25  1  0  0  0  0
 21 22  1  0  0  0  0
 22 23  2  0  0  0  0
 24 23  1  0  0  0  0
 25 24  2  0  0  0  0
M  END
>  <MODEL>
3

>  <REMARK>
 VINA RESULT:    -6.420      2.074      5.045
 INTER + INTRA:         -11.783
 INTER:                  -8.670
 INTRA:                  -3.113
 UNBOUND:                -1.797
  Name = CHEMBL5271840
  11 active torsions:
  status: ('A' for Active; 'I' for Inactive)
    1  A    between atoms: C_1  and  O_2
    2  A    between atoms: O_2  and  C_3
    3  A    between atoms: C_5  and  C_6
    4  A    between atoms: C_6  and  C_7
    5  A    between atoms: C_7  and  C_8
    6  A    between atoms: C_8  and  C_10
    7  A    between atoms: C_10  and  C_11
    8  A    between atoms: C_11  and  C_13
    9  A    between atoms: C_13  and  C_14
   10  A    between atoms: C_14  and  C_15
   11  A    between atoms: C_23  and  O_24
                            x       y       z     vdW  Elec       q    Type
                         _______ _______ _______ _____ _____    ______ ____

>  <TORSDO>
F 10

>  <SCORE>
-6.420

>  <RMSD_LB>
2.074

>  <RMSD_UB>
5.045

$$$$
CHEMBL5271840
 OpenBabel10162523433D

 25 26  0  0  0  0  0  0  0  0999 V2000
  136.7780  135.5660  149.5790 C   0  0  0  0  0  0  0  0  0  0  0  0
  136.9730  136.7440  149.2710 O   0  0  0  0  0  0  0  0  0  0  0  0
  136.2170  135.1660  150.9300 C   0  0  0  0  0  2  0  0  0  0  0  0
  136.4950  136.2420  151.9790 C   0  0  0  0  0  2  0  0  0  0  0  0
  136.2180  135.9620  155.7840 C   0  0  0  0  0  0  0  0  0  0  0  0
  136.6580  136.3270  154.5080 C   0  0  0  0  0  3  0  0  0  0  0  0
  135.9930  135.8710  153.3540 C   0  0  0  0  0  0  0  0  0  0  0  0
  134.8850  135.0270  153.4930 C   0  0  0  0  0  3  0  0  0  0  0  0
  134.4420  134.6490  154.7610 C   0  0  0  0  0  3  0  0  0  0  0  0
  135.1070  135.1170  155.8940 C   0  0  0  0  0  0  0  0  0  0  0  0
  136.9630  137.7580  157.1630 C   0  0  0  0  0  1  0  0  0  0  0  0
  136.7970  136.3630  156.9590 O   0  0  0  0  0  0  0  0  0  0  0  0
  134.6710  134.7400  157.1370 O   0  0  0  0  0  0  0  0  0  0  0  0
  135.0180  135.1550  157.9020 H   0  0  0  0  0  0  0  0  0  0  0  0
  137.1840  134.4720  148.6310 C   0  0  0  0  0  2  0  0  0  0  0  0
  136.3540  134.3610  147.3740 C   0  0  0  0  0  0  0  0  0  0  0  0
  136.4550  135.1610  146.4440 O   0  0  0  0  0  0  0  0  0  0  0  0
  135.3460  133.2340  147.3130 C   0  0  0  0  0  2  0  0  0  0  0  0
  133.9350  133.7890  147.1770 C   0  0  0  0  0  2  0  0  0  0  0  0
  133.4460  134.4520  148.4360 C   0  0  0  0  0  0  0  0  0  0  0  0
  133.3350  135.8470  148.5070 C   0  0  0  0  0  3  0  0  0  0  0  0
  132.8380  136.4550  149.6590 C   0  0  0  0  0  3  0  0  0  0  0  0
  132.4550  135.6770  150.7500 C   0  0  0  0  0  3  0  0  0  0  0  0
  132.5870  134.2890  150.6970 C   0  0  0  0  0  3  0  0  0  0  0  0
  133.0830  133.6790  149.5460 C   0  0  0  0  0  3  0  0  0  0  0  0
  1  3  1  0  0  0  0
  2  1  2  0  0  0  0
  3  4  1  0  0  0  0
  4  7  1  0  0  0  0
  5 10  1  0  0  0  0
  5 12  1  0  0  0  0
  6  5  2  0  0  0  0
  7  8  2  0  0  0  0
  7  6  1  0  0  0  0
  8  9  1  0  0  0  0
  9 10  2  0  0  0  0
 10 13  1  0  0  0  0
 12 11  1  0  0  0  0
 13 14  1  0  0  0  0
 15  1  1  0  0  0  0
 16 15  1  0  0  0  0
 17 16  2  0  0  0  0
 18 16  1  0  0  0  0
 19 18  1  0  0  0  0
 19 20  1  0  0  0  0
 20 21  2  0  0  0  0
 20 25  1  0  0  0  0
 21 22  1  0  0  0  0
 22 23  2  0  0  0  0
 24 23  1  0  0  0  0
 25 24  2  0  0  0  0
M  END
>  <MODEL>
4

>  <REMARK>
 VINA RESULT:    -6.413     10.097     12.742
 INTER + INTRA:         -11.773
 INTER:                  -9.720
 INTRA:                  -2.052
 UNBOUND:                -1.797
  Name = CHEMBL5271840
  11 active torsions:
  status: ('A' for Active; 'I' for Inactive)
    1  A    between atoms: C_1  and  O_2
    2  A    between atoms: O_2  and  C_3
    3  A    between atoms: C_5  and  C_6
    4  A    between atoms: C_6  and  C_7
    5  A    between atoms: C_7  and  C_8
    6  A    between atoms: C_8  and  C_10
    7  A    between atoms: C_10  and  C_11
    8  A    between atoms: C_11  and  C_13
    9  A    between atoms: C_13  and  C_14
   10  A    between atoms: C_14  and  C_15
   11  A    between atoms: C_23  and  O_24
                            x       y       z     vdW  Elec       q    Type
                         _______ _______ _______ _____ _____    ______ ____

>  <TORSDO>
F 10

>  <SCORE>
-6.413

>  <RMSD_LB>
10.097

>  <RMSD_UB>
12.742

$$$$
CHEMBL5271840
 OpenBabel10162523433D

 25 26  0  0  0  0  0  0  0  0999 V2000
  145.6010  140.3490  149.2790 C   0  0  0  0  0  0  0  0  0  0  0  0
  144.3920  140.2890  149.0460 O   0  0  0  0  0  0  0  0  0  0  0  0
  146.3430  141.6700  149.3580 C   0  0  0  0  0  2  0  0  0  0  0  0
  146.0200  142.4030  150.6590 C   0  0  0  0  0  2  0  0  0  0  0  0
  146.6730  140.5380  153.9350 C   0  0  0  0  0  0  0  0  0  0  0  0
  146.0280  141.0550  152.8060 C   0  0  0  0  0  3  0  0  0  0  0  0
  146.7310  141.8210  151.8580 C   0  0  0  0  0  0  0  0  0  0  0  0
  148.0910  142.0800  152.0620 C   0  0  0  0  0  3  0  0  0  0  0  0
  148.7440  141.5790  153.1880 C   0  0  0  0  0  3  0  0  0  0  0  0
  148.0340  140.8130  154.1140 C   0  0  0  0  0  0  0  0  0  0  0  0
  144.6550  139.6910  154.8800 C   0  0  0  0  0  1  0  0  0  0  0  0
  146.0720  139.7780  154.9030 O   0  0  0  0  0  0  0  0  0  0  0  0
  148.6780  140.3250  155.2210 O   0  0  0  0  0  0  0  0  0  0  0  0
  148.2460  139.7100  155.7810 H   0  0  0  0  0  0  0  0  0  0  0  0
  146.3990  139.0820  149.4090 C   0  0  0  0  0  2  0  0  0  0  0  0
  145.8500  137.8900  148.6620 C   0  0  0  0  0  0  0  0  0  0  0  0
  145.8810  137.8100  147.4340 O   0  0  0  0  0  0  0  0  0  0  0  0
  145.2140  136.7930  149.4880 C   0  0  0  0  0  2  0  0  0  0  0  0
  144.9250  137.2900  150.8980 C   0  0  0  0  0  2  0  0  0  0  0  0
  143.4520  137.3590  151.2010 C   0  0  0  0  0  0  0  0  0  0  0  0
  142.5090  137.1570  150.1860 C   0  0  0  0  0  3  0  0  0  0  0  0
  141.1450  137.1750  150.4790 C   0  0  0  0  0  3  0  0  0  0  0  0
  140.7150  137.4020  151.7850 C   0  0  0  0  0  3  0  0  0  0  0  0
  141.6480  137.6300  152.7970 C   0  0  0  0  0  3  0  0  0  0  0  0
  143.0110  137.6110  152.5060 C   0  0  0  0  0  3  0  0  0  0  0  0
  1  3  1  0  0  0  0
  1 15  1  0  0  0  0
  2  1  2  0  0  0  0
  3  4  1  0  0  0  0
  4  7  1  0  0  0  0
  5 10  1  0  0  0  0
  5 12  1  0  0  0  0
  6  5  2  0  0  0  0
  7  8  2  0  0  0  0
  7  6  1  0  0  0  0
  8  9  1  0  0  0  0
  9 10  2  0  0  0  0
 10 13  1  0  0  0  0
 11 12  1  0  0  0  0
 13 14  1  0  0  0  0
 16 15  1  0  0  0  0
 16 18  1  0  0  0  0
 17 16  2  0  0  0  0
 18 19  1  0  0  0  0
 19 20  1  0  0  0  0
 20 25  1  0  0  0  0
 21 22  1  0  0  0  0
 21 20  2  0  0  0  0
 22 23  2  0  0  0  0
 23 24  1  0  0  0  0
 25 24  2  0  0  0  0
M  END
>  <MODEL>
5

>  <REMARK>
 VINA RESULT:    -6.387      2.194      6.189
 INTER + INTRA:         -11.731
 INTER:                 -10.320
 INTRA:                  -1.411
 UNBOUND:                -1.797
  Name = CHEMBL5271840
  11 active torsions:
  status: ('A' for Active; 'I' for Inactive)
    1  A    between atoms: C_1  and  O_2
    2  A    between atoms: O_2  and  C_3
    3  A    between atoms: C_5  and  C_6
    4  A    between atoms: C_6  and  C_7
    5  A    between atoms: C_7  and  C_8
    6  A    between atoms: C_8  and  C_10
    7  A    between atoms: C_10  and  C_11
    8  A    between atoms: C_11  and  C_13
    9  A    between atoms: C_13  and  C_14
   10  A    between atoms: C_14  and  C_15
   11  A    between atoms: C_23  and  O_24
                            x       y       z     vdW  Elec       q    Type
                         _______ _______ _______ _____ _____    ______ ____

>  <TORSDO>
F 10

>  <SCORE>
-6.387

>  <RMSD_LB>
2.194

>  <RMSD_UB>
6.189

$$$$
CHEMBL5271840
 OpenBabel10162523433D

 25 26  0  0  0  0  0  0  0  0999 V2000
  136.7710  135.6510  147.8110 C   0  0  0  0  0  0  0  0  0  0  0  0
  137.3430  136.0930  146.8120 O   0  0  0  0  0  0  0  0  0  0  0  0
  136.3030  136.5510  148.9380 C   0  0  0  0  0  2  0  0  0  0  0  0
  136.6670  135.9600  150.2990 C   0  0  0  0  0  2  0  0  0  0  0  0
  139.1170  138.6900  151.3870 C   0  0  0  0  0  0  0  0  0  0  0  0
  138.3590  137.8260  150.5890 C   0  0  0  0  0  3  0  0  0  0  0  0
  137.4570  136.9120  151.1650 C   0  0  0  0  0  0  0  0  0  0  0  0
  137.3330  136.8610  152.5580 C   0  0  0  0  0  3  0  0  0  0  0  0
  138.0890  137.7110  153.3650 C   0  0  0  0  0  3  0  0  0  0  0  0
  138.9730  138.6180  152.7780 C   0  0  0  0  0  0  0  0  0  0  0  0
  139.5050  140.6440  150.0780 C   0  0  0  0  0  1  0  0  0  0  0  0
  140.0100  139.6140  150.9140 O   0  0  0  0  0  0  0  0  0  0  0  0
  139.7170  139.4480  153.5740 O   0  0  0  0  0  0  0  0  0  0  0  0
  139.3730  140.2790  153.8360 H   0  0  0  0  0  0  0  0  0  0  0  0
  136.5980  134.1660  147.9730 C   0  0  0  0  0  2  0  0  0  0  0  0
  135.5460  133.5350  147.0930 C   0  0  0  0  0  0  0  0  0  0  0  0
  135.7710  132.5350  146.4100 O   0  0  0  0  0  0  0  0  0  0  0  0
  134.1920  134.2080  147.0490 C   0  0  0  0  0  2  0  0  0  0  0  0
  133.2370  133.5480  148.0340 C   0  0  0  0  0  2  0  0  0  0  0  0
  133.3740  134.0920  149.4310 C   0  0  0  0  0  0  0  0  0  0  0  0
  132.9580  135.3960  149.7290 C   0  0  0  0  0  3  0  0  0  0  0  0
  133.0430  135.8800  151.0340 C   0  0  0  0  0  3  0  0  0  0  0  0
  133.5510  135.0700  152.0480 C   0  0  0  0  0  3  0  0  0  0  0  0
  133.9910  133.7800  151.7540 C   0  0  0  0  0  3  0  0  0  0  0  0
  133.9060  133.2930  150.4500 C   0  0  0  0  0  3  0  0  0  0  0  0
  1 15  1  0  0  0  0
  1  3  1  0  0  0  0
  2  1  2  0  0  0  0
  3  4  1  0  0  0  0
  4  7  1  0  0  0  0
  5 10  1  0  0  0  0
  6  7  1  0  0  0  0
  6  5  2  0  0  0  0
  7  8  2  0  0  0  0
  8  9  1  0  0  0  0
 10  9  2  0  0  0  0
 10 13  1  0  0  0  0
 11 12  1  0  0  0  0
 12  5  1  0  0  0  0
 13 14  1  0  0  0  0
 16 15  1  0  0  0  0
 17 16  2  0  0  0  0
 18 16  1  0  0  0  0
 18 19  1  0  0  0  0
 19 20  1  0  0  0  0
 20 21  2  0  0  0  0
 20 25  1  0  0  0  0
 21 22  1  0  0  0  0
 22 23  2  0  0  0  0
 24 23  1  0  0  0  0
 25 24  2  0  0  0  0
M  END
>  <MODEL>
6

>  <REMARK>
 VINA RESULT:    -6.232      7.443     12.118
 INTER + INTRA:         -11.490
 INTER:                  -9.372
 INTRA:                  -2.118
 UNBOUND:                -1.797
  Name = CHEMBL5271840
  11 active torsions:
  status: ('A' for Active; 'I' for Inactive)
    1  A    between atoms: C_1  and  O_2
    2  A    between atoms: O_2  and  C_3
    3  A    between atoms: C_5  and  C_6
    4  A    between atoms: C_6  and  C_7
    5  A    between atoms: C_7  and  C_8
    6  A    between atoms: C_8  and  C_10
    7  A    between atoms: C_10  and  C_11
    8  A    between atoms: C_11  and  C_13
    9  A    between atoms: C_13  and  C_14
   10  A    between atoms: C_14  and  C_15
   11  A    between atoms: C_23  and  O_24
                            x       y       z     vdW  Elec       q    Type
                         _______ _______ _______ _____ _____    ______ ____

>  <TORSDO>
F 10

>  <SCORE>
-6.232

>  <RMSD_LB>
7.443

>  <RMSD_UB>
12.118

$$$$
CHEMBL5271840
 OpenBabel10162523433D

 25 26  0  0  0  0  0  0  0  0999 V2000
  147.7860  138.1260  152.7330 C   0  0  0  0  0  0  0  0  0  0  0  0
  147.7450  137.0670  153.3620 O   0  0  0  0  0  0  0  0  0  0  0  0
  147.2370  138.2510  151.3250 C   0  0  0  0  0  2  0  0  0  0  0  0
  146.8650  136.8810  150.7580 C   0  0  0  0  0  2  0  0  0  0  0  0
  143.0610  137.2150  150.9910 C   0  0  0  0  0  0  0  0  0  0  0  0
  144.4270  137.3560  151.2620 C   0  0  0  0  0  3  0  0  0  0  0  0
  145.3950  136.7520  150.4390 C   0  0  0  0  0  0  0  0  0  0  0  0
  144.9790  135.9870  149.3440 C   0  0  0  0  0  3  0  0  0  0  0  0
  143.6200  135.8310  149.0670 C   0  0  0  0  0  3  0  0  0  0  0  0
  142.6740  136.4440  149.8890 C   0  0  0  0  0  0  0  0  0  0  0  0
  141.8490  139.1710  151.6110 C   0  0  0  0  0  1  0  0  0  0  0  0
  142.0530  137.7710  151.7320 O   0  0  0  0  0  0  0  0  0  0  0  0
  141.3400  136.2850  149.6170 O   0  0  0  0  0  0  0  0  0  0  0  0
  140.8360  137.0100  149.3030 H   0  0  0  0  0  0  0  0  0  0  0  0
  148.4750  139.3210  153.3310 C   0  0  0  0  0  2  0  0  0  0  0  0
  147.6550  140.1160  154.3190 C   0  0  0  0  0  0  0  0  0  0  0  0
  146.9310  139.5800  155.1580 O   0  0  0  0  0  0  0  0  0  0  0  0
  147.7260  141.6240  154.2150 C   0  0  0  0  0  2  0  0  0  0  0  0
  146.4190  142.1810  153.6680 C   0  0  0  0  0  2  0  0  0  0  0  0
  146.2380  141.9070  152.1990 C   0  0  0  0  0  0  0  0  0  0  0  0
  145.0980  141.2360  151.7380 C   0  0  0  0  0  3  0  0  0  0  0  0
  144.9110  141.0250  150.3720 C   0  0  0  0  0  3  0  0  0  0  0  0
  145.8630  141.4740  149.4590 C   0  0  0  0  0  3  0  0  0  0  0  0
  147.0130  142.1200  149.9130 C   0  0  0  0  0  3  0  0  0  0  0  0
  147.2020  142.3330  151.2780 C   0  0  0  0  0  3  0  0  0  0  0  0
  1 15  1  0  0  0  0
  1  2  2  0  0  0  0
  3  1  1  0  0  0  0
  4  3  1  0  0  0  0
  5  6  1  0  0  0  0
  5 12  1  0  0  0  0
  7  4  1  0  0  0  0
  7  6  2  0  0  0  0
  8  7  1  0  0  0  0
  9  8  2  0  0  0  0
  9 10  1  0  0  0  0
 10  5  2  0  0  0  0
 11 12  1  0  0  0  0
 13 10  1  0  0  0  0
 14 13  1  0  0  0  0
 15 16  1  0  0  0  0
 16 17  2  0  0  0  0
 18 16  1  0  0  0  0
 19 18  1  0  0  0  0
 20 19  1  0  0  0  0
 21 20  1  0  0  0  0
 22 21  2  0  0  0  0
 23 24  2  0  0  0  0
 23 22  1  0  0  0  0
 24 25  1  0  0  0  0
 25 20  2  0  0  0  0
M  END
>  <MODEL>
7

>  <REMARK>
 VINA RESULT:    -6.201      1.529      1.983
 INTER + INTRA:         -11.442
 INTER:                  -9.413
 INTRA:                  -2.029
 UNBOUND:                -1.797
  Name = CHEMBL5271840
  11 active torsions:
  status: ('A' for Active; 'I' for Inactive)
    1  A    between atoms: C_1  and  O_2
    2  A    between atoms: O_2  and  C_3
    3  A    between atoms: C_5  and  C_6
    4  A    between atoms: C_6  and  C_7
    5  A    between atoms: C_7  and  C_8
    6  A    between atoms: C_8  and  C_10
    7  A    between atoms: C_10  and  C_11
    8  A    between atoms: C_11  and  C_13
    9  A    between atoms: C_13  and  C_14
   10  A    between atoms: C_14  and  C_15
   11  A    between atoms: C_23  and  O_24
                            x       y       z     vdW  Elec       q    Type
                         _______ _______ _______ _____ _____    ______ ____

>  <TORSDO>
F 10

>  <SCORE>
-6.201

>  <RMSD_LB>
1.529

>  <RMSD_UB>
1.983

$$$$
CHEMBL5271840
 OpenBabel10162523433D

 25 26  0  0  0  0  0  0  0  0999 V2000
  144.5950  139.3240  148.2560 C   0  0  0  0  0  0  0  0  0  0  0  0
  144.1870  139.7840  147.1870 O   0  0  0  0  0  0  0  0  0  0  0  0
  144.6170  140.1450  149.5320 C   0  0  0  0  0  2  0  0  0  0  0  0
  145.8590  141.0340  149.5900 C   0  0  0  0  0  2  0  0  0  0  0  0
  147.8640  140.3780  152.7810 C   0  0  0  0  0  0  0  0  0  0  0  0
  147.3660  140.2670  151.4780 C   0  0  0  0  0  3  0  0  0  0  0  0
  146.4160  141.1810  150.9850 C   0  0  0  0  0  0  0  0  0  0  0  0
  145.9560  142.2050  151.8210 C   0  0  0  0  0  3  0  0  0  0  0  0
  146.4380  142.3210  153.1250 C   0  0  0  0  0  3  0  0  0  0  0  0
  147.3860  141.4120  153.5950 C   0  0  0  0  0  0  0  0  0  0  0  0
  148.3080  138.4360  154.0910 C   0  0  0  0  0  1  0  0  0  0  0  0
  148.7920  139.5400  153.3410 O   0  0  0  0  0  0  0  0  0  0  0  0
  147.8540  141.5270  154.8780 O   0  0  0  0  0  0  0  0  0  0  0  0
  147.9800  140.7600  155.4020 H   0  0  0  0  0  0  0  0  0  0  0  0
  145.1700  137.9360  148.2970 C   0  0  0  0  0  2  0  0  0  0  0  0
  144.1630  136.8190  148.4270 C   0  0  0  0  0  0  0  0  0  0  0  0
  143.6690  136.2600  147.4480 O   0  0  0  0  0  0  0  0  0  0  0  0
  143.7440  136.4300  149.8280 C   0  0  0  0  0  2  0  0  0  0  0  0
  142.2950  136.8270  150.0790 C   0  0  0  0  0  2  0  0  0  0  0  0
  142.0470  137.2550  151.5010 C   0  0  0  0  0  0  0  0  0  0  0  0
  143.1120  137.3720  152.4030 C   0  0  0  0  0  3  0  0  0  0  0  0
  142.8840  137.8150  153.7060 C   0  0  0  0  0  3  0  0  0  0  0  0
  141.5920  138.1350  154.1190 C   0  0  0  0  0  3  0  0  0  0  0  0
  140.5230  137.9950  153.2330 C   0  0  0  0  0  3  0  0  0  0  0  0
  140.7490  137.5550  151.9310 C   0  0  0  0  0  3  0  0  0  0  0  0
  1 15  1  0  0  0  0
  1  3  1  0  0  0  0
  2  1  2  0  0  0  0
  3  4  1  0  0  0  0
  4  7  1  0  0  0  0
  5 12  1  0  0  0  0
  5 10  1  0  0  0  0
  6  5  2  0  0  0  0
  7  6  1  0  0  0  0
  7  8  2  0  0  0  0
  8  9  1  0  0  0  0
  9 10  2  0  0  0  0
 10 13  1  0  0  0  0
 12 11  1  0  0  0  0
 13 14  1  0  0  0  0
 15 16  1  0  0  0  0
 16 18  1  0  0  0  0
 17 16  2  0  0  0  0
 18 19  1  0  0  0  0
 19 20  1  0  0  0  0
 20 25  2  0  0  0  0
 20 21  1  0  0  0  0
 21 22  2  0  0  0  0
 22 23  1  0  0  0  0
 24 23  2  0  0  0  0
 25 24  1  0  0  0  0
M  END
>  <MODEL>
8

>  <REMARK>
 VINA RESULT:    -6.062      2.298      6.668
 INTER + INTRA:         -11.225
 INTER:                 -10.071
 INTRA:                  -1.155
 UNBOUND:                -1.797
  Name = CHEMBL5271840
  11 active torsions:
  status: ('A' for Active; 'I' for Inactive)
    1  A    between atoms: C_1  and  O_2
    2  A    between atoms: O_2  and  C_3
    3  A    between atoms: C_5  and  C_6
    4  A    between atoms: C_6  and  C_7
    5  A    between atoms: C_7  and  C_8
    6  A    between atoms: C_8  and  C_10
    7  A    between atoms: C_10  and  C_11
    8  A    between atoms: C_11  and  C_13
    9  A    between atoms: C_13  and  C_14
   10  A    between atoms: C_14  and  C_15
   11  A    between atoms: C_23  and  O_24
                            x       y       z     vdW  Elec       q    Type
                         _______ _______ _______ _____ _____    ______ ____

>  <TORSDO>
F 10

>  <SCORE>
-6.062

>  <RMSD_LB>
2.298

>  <RMSD_UB>
6.668

$$$$
CHEMBL5271840
 OpenBabel10162523433D

 25 26  0  0  0  0  0  0  0  0999 V2000
  137.3680  133.9560  146.3180 C   0  0  0  0  0  0  0  0  0  0  0  0
  136.9870  134.8560  145.5660 O   0  0  0  0  0  0  0  0  0  0  0  0
  138.2630  134.2280  147.5130 C   0  0  0  0  0  2  0  0  0  0  0  0
  137.4430  134.6670  148.7240 C   0  0  0  0  0  2  0  0  0  0  0  0
  138.4220  137.9650  150.3970 C   0  0  0  0  0  0  0  0  0  0  0  0
  138.3320  136.6000  150.1010 C   0  0  0  0  0  3  0  0  0  0  0  0
  137.5620  136.1430  149.0160 C   0  0  0  0  0  0  0  0  0  0  0  0
  136.8660  137.0720  148.2340 C   0  0  0  0  0  3  0  0  0  0  0  0
  136.9410  138.4350  148.5230 C   0  0  0  0  0  3  0  0  0  0  0  0
  137.7160  138.8720  149.5970 C   0  0  0  0  0  0  0  0  0  0  0  0
  138.7460  138.1810  152.7490 C   0  0  0  0  0  1  0  0  0  0  0  0
  139.1520  138.4980  151.4250 O   0  0  0  0  0  0  0  0  0  0  0  0
  137.7840  140.2100  149.8810 O   0  0  0  0  0  0  0  0  0  0  0  0
  138.4220  140.5300  150.4890 H   0  0  0  0  0  0  0  0  0  0  0  0
  137.0150  132.5280  146.0090 C   0  0  0  0  0  2  0  0  0  0  0  0
  135.8290  131.9750  146.7620 C   0  0  0  0  0  0  0  0  0  0  0  0
  135.7400  130.7870  147.0720 O   0  0  0  0  0  0  0  0  0  0  0  0
  134.7140  132.9430  147.0960 C   0  0  0  0  0  2  0  0  0  0  0  0
  134.1340  132.6320  148.4690 C   0  0  0  0  0  2  0  0  0  0  0  0
  133.6480  133.8620  149.1880 C   0  0  0  0  0  0  0  0  0  0  0  0
  133.7100  135.1170  148.5680 C   0  0  0  0  0  3  0  0  0  0  0  0
  133.2150  136.2470  149.2190 C   0  0  0  0  0  3  0  0  0  0  0  0
  132.6640  136.1340  150.4940 C   0  0  0  0  0  3  0  0  0  0  0  0
  132.6240  134.8920  151.1280 C   0  0  0  0  0  3  0  0  0  0  0  0
  133.1160  133.7610  150.4790 C   0  0  0  0  0  3  0  0  0  0  0  0
  1  3  1  0  0  0  0
  2  1  2  0  0  0  0
  3  4  1  0  0  0  0
  4  7  1  0  0  0  0
  5 12  1  0  0  0  0
  6  5  1  0  0  0  0
  7  6  2  0  0  0  0
  8  9  2  0  0  0  0
  8  7  1  0  0  0  0
  9 10  1  0  0  0  0
 10 13  1  0  0  0  0
 10  5  2  0  0  0  0
 12 11  1  0  0  0  0
 13 14  1  0  0  0  0
 15  1  1  0  0  0  0
 15 16  1  0  0  0  0
 16 17  2  0  0  0  0
 16 18  1  0  0  0  0
 18 19  1  0  0  0  0
 19 20  1  0  0  0  0
 20 25  1  0  0  0  0
 21 20  2  0  0  0  0
 21 22  1  0  0  0  0
 22 23  2  0  0  0  0
 23 24  1  0  0  0  0
 25 24  2  0  0  0  0
M  END
>  <MODEL>
9

>  <REMARK>
 VINA RESULT:    -6.053      8.083     12.311
 INTER + INTRA:         -11.212
 INTER:                  -9.414
 INTRA:                  -1.797
 UNBOUND:                -1.797
  Name = CHEMBL5271840
  11 active torsions:
  status: ('A' for Active; 'I' for Inactive)
    1  A    between atoms: C_1  and  O_2
    2  A    between atoms: O_2  and  C_3
    3  A    between atoms: C_5  and  C_6
    4  A    between atoms: C_6  and  C_7
    5  A    between atoms: C_7  and  C_8
    6  A    between atoms: C_8  and  C_10
    7  A    between atoms: C_10  and  C_11
    8  A    between atoms: C_11  and  C_13
    9  A    between atoms: C_13  and  C_14
   10  A    between atoms: C_14  and  C_15
   11  A    between atoms: C_23  and  O_24
                            x       y       z     vdW  Elec       q    Type
                         _______ _______ _______ _____ _____    ______ ____

>  <TORSDO>
F 10

>  <SCORE>
-6.053

>  <RMSD_LB>
8.083

>  <RMSD_UB>
12.311

$$$$
