CHEMBL549387
 OpenBabel10162523563D

 21 21  0  0  0  0  0  0  0  0999 V2000
  145.5730  136.9530  151.3970 C   0  0  0  0  0  2  0  0  0  0  0  0
  145.1520  137.8290  152.5490 C   0  0  0  0  0  0  0  0  0  0  0  0
  143.9200  138.4890  152.5210 C   0  0  0  0  0  3  0  0  0  0  0  0
  143.5500  139.3330  153.5680 C   0  0  0  0  0  3  0  0  0  0  0  0
  144.4010  139.5190  154.6620 C   0  0  0  0  0  0  0  0  0  0  0  0
  145.6280  138.8480  154.7240 C   0  0  0  0  0  0  0  0  0  0  0  0
  145.9840  137.9990  153.6650 C   0  0  0  0  0  3  0  0  0  0  0  0
  143.9980  140.3690  155.6550 O   0  0  0  0  0  0  0  0  0  0  0  0
  143.4410  141.0950  155.4510 H   0  0  0  0  0  0  0  0  0  0  0  0
  146.5820  138.9050  155.7050 O   0  0  0  0  0  0  0  0  0  0  0  0
  147.7020  138.0380  155.5980 C   0  0  0  0  0  1  0  0  0  0  0  0
  145.1050  137.5270  150.1730 O   0  0  0  0  0  0  0  0  0  0  0  0
  146.0570  138.0250  149.3400 C   0  0  0  0  0  0  0  0  0  0  0  0
  146.3720  137.5560  148.2550 O   0  0  0  0  0  0  0  0  0  0  0  0
  146.6700  139.2730  149.9200 C   0  0  0  0  0  2  0  0  0  0  0  0
  145.9870  140.5220  149.3730 C   0  0  0  0  0  2  0  0  0  0  0  0
  145.1210  141.2050  150.4300 C   0  0  0  0  0  2  0  0  0  0  0  0
  145.8530  142.4090  151.0260 C   0  0  0  0  0  2  0  0  0  0  0  0
  146.0220  142.2670  152.5370 C   0  0  0  0  0  2  0  0  0  0  0  0
  148.4280  142.0000  151.8500 C   0  0  0  0  0  1  0  0  0  0  0  0
  147.3740  141.6440  152.8850 C   0  0  0  0  0  2  0  0  0  0  0  0
  1  2  1  0  0  0  0
  2  7  1  0  0  0  0
  3  2  2  0  0  0  0
  3  4  1  0  0  0  0
  4  5  2  0  0  0  0
  5  6  1  0  0  0  0
  5  8  1  0  0  0  0
  6 10  1  0  0  0  0
  7  6  2  0  0  0  0
  9  8  1  0  0  0  0
 11 10  1  0  0  0  0
 12  1  1  0  0  0  0
 13 15  1  0  0  0  0
 13 12  1  0  0  0  0
 14 13  2  0  0  0  0
 16 15  1  0  0  0  0
 16 17  1  0  0  0  0
 17 18  1  0  0  0  0
 18 19  1  0  0  0  0
 19 21  1  0  0  0  0
 20 21  1  0  0  0  0
M  END
>  <MODEL>
1

>  <REMARK>
 VINA RESULT:    -5.825      0.000      0.000
 INTER + INTRA:         -10.462
 INTER:                  -8.641
 INTRA:                  -1.822
 UNBOUND:                -1.062
  Name = CHEMBL549387
  13 active torsions:
  status: ('A' for Active; 'I' for Inactive)
    1  A    between atoms: C_1  and  C_2
    2  A    between atoms: C_2  and  C_3
    3  A    between atoms: C_3  and  C_4
    4  A    between atoms: C_4  and  C_5
    5  A    between atoms: C_5  and  C_6
    6  A    between atoms: C_6  and  C_7
    7  A    between atoms: C_7  and  C_8
    8  A    between atoms: C_8  and  O_10
    9  A    between atoms: O_10  and  C_11
   10  A    between atoms: C_11  and  C_12
   11  A    between atoms: C_15  and  O_16
   12  A    between atoms: C_17  and  O_18
   13  A    between atoms: O_18  and  C_19
                            x       y       z     vdW  Elec       q    Type
                         _______ _______ _______ _____ _____    ______ ____

>  <TORSDO>
F 11

>  <SCORE>
-5.825

>  <RMSD_LB>
0.000

>  <RMSD_UB>
0.000

$$$$
CHEMBL549387
 OpenBabel10162523563D

 21 21  0  0  0  0  0  0  0  0999 V2000
  142.6180  138.8240  154.6280 C   0  0  0  0  0  2  0  0  0  0  0  0
  141.2920  138.5170  153.9800 C   0  0  0  0  0  0  0  0  0  0  0  0
  141.2450  137.9050  152.7230 C   0  0  0  0  0  3  0  0  0  0  0  0
  140.0190  137.6590  152.1060 C   0  0  0  0  0  3  0  0  0  0  0  0
  138.8230  138.0110  152.7420 C   0  0  0  0  0  0  0  0  0  0  0  0
  138.8450  138.6000  154.0110 C   0  0  0  0  0  0  0  0  0  0  0  0
  140.0870  138.8360  154.6210 C   0  0  0  0  0  3  0  0  0  0  0  0
  137.6490  137.7640  152.0870 O   0  0  0  0  0  0  0  0  0  0  0  0
  137.6580  137.3170  151.2630 H   0  0  0  0  0  0  0  0  0  0  0  0
  137.7880  139.0080  154.7800 O   0  0  0  0  0  0  0  0  0  0  0  0
  137.3030  138.1170  155.7740 C   0  0  0  0  0  1  0  0  0  0  0  0
  143.3900  139.6510  153.7520 O   0  0  0  0  0  0  0  0  0  0  0  0
  144.6310  139.1950  153.4340 C   0  0  0  0  0  0  0  0  0  0  0  0
  145.5000  138.8750  154.2340 O   0  0  0  0  0  0  0  0  0  0  0  0
  144.7980  139.1040  151.9400 C   0  0  0  0  0  2  0  0  0  0  0  0
  144.0420  140.2260  151.2370 C   0  0  0  0  0  2  0  0  0  0  0  0
  144.9880  141.1890  150.5230 C   0  0  0  0  0  2  0  0  0  0  0  0
  145.5120  142.2470  151.4970 C   0  0  0  0  0  2  0  0  0  0  0  0
  147.0360  142.3330  151.4620 C   0  0  0  0  0  2  0  0  0  0  0  0
  147.2410  141.9660  153.9420 C   0  0  0  0  0  1  0  0  0  0  0  0
  147.6630  141.4810  152.5660 C   0  0  0  0  0  2  0  0  0  0  0  0
  2  7  1  0  0  0  0
  2  1  1  0  0  0  0
  3  2  2  0  0  0  0
  4  3  1  0  0  0  0
  4  5  2  0  0  0  0
  5  6  1  0  0  0  0
  6  7  2  0  0  0  0
  6 10  1  0  0  0  0
  8  5  1  0  0  0  0
  9  8  1  0  0  0  0
 10 11  1  0  0  0  0
 12  1  1  0  0  0  0
 13 12  1  0  0  0  0
 13 14  2  0  0  0  0
 15 13  1  0  0  0  0
 16 15  1  0  0  0  0
 17 16  1  0  0  0  0
 17 18  1  0  0  0  0
 19 18  1  0  0  0  0
 19 21  1  0  0  0  0
 21 20  1  0  0  0  0
M  END
>  <MODEL>
2

>  <REMARK>
 VINA RESULT:    -5.773      3.573      5.165
 INTER + INTRA:         -10.379
 INTER:                  -9.171
 INTRA:                  -1.207
 UNBOUND:                -1.062
  Name = CHEMBL549387
  13 active torsions:
  status: ('A' for Active; 'I' for Inactive)
    1  A    between atoms: C_1  and  C_2
    2  A    between atoms: C_2  and  C_3
    3  A    between atoms: C_3  and  C_4
    4  A    between atoms: C_4  and  C_5
    5  A    between atoms: C_5  and  C_6
    6  A    between atoms: C_6  and  C_7
    7  A    between atoms: C_7  and  C_8
    8  A    between atoms: C_8  and  O_10
    9  A    between atoms: O_10  and  C_11
   10  A    between atoms: C_11  and  C_12
   11  A    between atoms: C_15  and  O_16
   12  A    between atoms: C_17  and  O_18
   13  A    between atoms: O_18  and  C_19
                            x       y       z     vdW  Elec       q    Type
                         _______ _______ _______ _____ _____    ______ ____

>  <TORSDO>
F 11

>  <SCORE>
-5.773

>  <RMSD_LB>
3.573

>  <RMSD_UB>
5.165

$$$$
CHEMBL549387
 OpenBabel10162523563D

 21 21  0  0  0  0  0  0  0  0999 V2000
  133.8690  133.7820  151.7150 C   0  0  0  0  0  2  0  0  0  0  0  0
  133.7210  133.6500  150.2210 C   0  0  0  0  0  0  0  0  0  0  0  0
  134.1680  132.4990  149.5650 C   0  0  0  0  0  3  0  0  0  0  0  0
  134.0690  132.3950  148.1780 C   0  0  0  0  0  3  0  0  0  0  0  0
  133.5130  133.4370  147.4280 C   0  0  0  0  0  0  0  0  0  0  0  0
  133.0350  134.5890  148.0660 C   0  0  0  0  0  0  0  0  0  0  0  0
  133.1370  134.6750  149.4630 C   0  0  0  0  0  3  0  0  0  0  0  0
  133.4540  133.2930  146.0700 O   0  0  0  0  0  0  0  0  0  0  0  0
  133.3110  134.0430  145.5250 H   0  0  0  0  0  0  0  0  0  0  0  0
  132.4650  135.6990  147.5030 O   0  0  0  0  0  0  0  0  0  0  0  0
  133.3070  136.8050  147.2100 C   0  0  0  0  0  1  0  0  0  0  0  0
  135.2190  134.1390  152.0260 O   0  0  0  0  0  0  0  0  0  0  0  0
  135.4090  135.3870  152.5340 C   0  0  0  0  0  0  0  0  0  0  0  0
  135.0600  135.7650  153.6430 O   0  0  0  0  0  0  0  0  0  0  0  0
  136.1430  136.2570  151.5470 C   0  0  0  0  0  2  0  0  0  0  0  0
  136.9340  135.4100  150.5560 C   0  0  0  0  0  2  0  0  0  0  0  0
  136.5960  135.7640  149.1090 C   0  0  0  0  0  2  0  0  0  0  0  0
  137.0840  134.6670  148.1620 C   0  0  0  0  0  2  0  0  0  0  0  0
  138.5320  134.2800  148.4530 C   0  0  0  0  0  2  0  0  0  0  0  0
  140.8170  135.3310  148.5310 C   0  0  0  0  0  1  0  0  0  0  0  0
  139.5080  135.2360  147.7660 C   0  0  0  0  0  2  0  0  0  0  0  0
  1 12  1  0  0  0  0
  2  1  1  0  0  0  0
  3  2  1  0  0  0  0
  4  3  2  0  0  0  0
  5  6  2  0  0  0  0
  5  4  1  0  0  0  0
  6  7  1  0  0  0  0
  7  2  2  0  0  0  0
  8  5  1  0  0  0  0
  9  8  1  0  0  0  0
 10  6  1  0  0  0  0
 11 10  1  0  0  0  0
 12 13  1  0  0  0  0
 13 14  2  0  0  0  0
 15 13  1  0  0  0  0
 16 15  1  0  0  0  0
 17 16  1  0  0  0  0
 18 19  1  0  0  0  0
 18 17  1  0  0  0  0
 21 19  1  0  0  0  0
 21 20  1  0  0  0  0
M  END
>  <MODEL>
3

>  <REMARK>
 VINA RESULT:    -5.561     10.531     12.851
 INTER + INTRA:         -10.036
 INTER:                  -8.290
 INTRA:                  -1.746
 UNBOUND:                -1.062
  Name = CHEMBL549387
  13 active torsions:
  status: ('A' for Active; 'I' for Inactive)
    1  A    between atoms: C_1  and  C_2
    2  A    between atoms: C_2  and  C_3
    3  A    between atoms: C_3  and  C_4
    4  A    between atoms: C_4  and  C_5
    5  A    between atoms: C_5  and  C_6
    6  A    between atoms: C_6  and  C_7
    7  A    between atoms: C_7  and  C_8
    8  A    between atoms: C_8  and  O_10
    9  A    between atoms: O_10  and  C_11
   10  A    between atoms: C_11  and  C_12
   11  A    between atoms: C_15  and  O_16
   12  A    between atoms: C_17  and  O_18
   13  A    between atoms: O_18  and  C_19
                            x       y       z     vdW  Elec       q    Type
                         _______ _______ _______ _____ _____    ______ ____

>  <TORSDO>
F 11

>  <SCORE>
-5.561

>  <RMSD_LB>
10.531

>  <RMSD_UB>
12.851

$$$$
CHEMBL549387
 OpenBabel10162523563D

 21 21  0  0  0  0  0  0  0  0999 V2000
  132.5160  135.6400  150.9050 C   0  0  0  0  0  2  0  0  0  0  0  0
  132.8370  135.7520  149.4360 C   0  0  0  0  0  0  0  0  0  0  0  0
  132.6200  136.9540  148.7560 C   0  0  0  0  0  3  0  0  0  0  0  0
  132.8780  137.0450  147.3880 C   0  0  0  0  0  3  0  0  0  0  0  0
  133.3660  135.9390  146.6850 C   0  0  0  0  0  0  0  0  0  0  0  0
  133.6160  134.7330  147.3510 C   0  0  0  0  0  0  0  0  0  0  0  0
  133.3560  134.6590  148.7280 C   0  0  0  0  0  3  0  0  0  0  0  0
  133.5870  136.0750  145.3420 O   0  0  0  0  0  0  0  0  0  0  0  0
  134.4200  135.8450  144.9790 H   0  0  0  0  0  0  0  0  0  0  0  0
  134.0890  133.5560  146.8340 O   0  0  0  0  0  0  0  0  0  0  0  0
  135.4730  133.2730  146.9780 C   0  0  0  0  0  1  0  0  0  0  0  0
  133.6450  136.0730  151.6690 O   0  0  0  0  0  0  0  0  0  0  0  0
  134.1630  135.1670  152.5410 C   0  0  0  0  0  0  0  0  0  0  0  0
  133.6000  134.7320  153.5350 O   0  0  0  0  0  0  0  0  0  0  0  0
  135.5400  134.7360  152.1050 C   0  0  0  0  0  2  0  0  0  0  0  0
  136.3790  135.9370  151.6820 C   0  0  0  0  0  2  0  0  0  0  0  0
  136.8400  135.8250  150.2300 C   0  0  0  0  0  2  0  0  0  0  0  0
  136.2760  136.9780  149.3980 C   0  0  0  0  0  2  0  0  0  0  0  0
  136.6670  136.8490  147.9280 C   0  0  0  0  0  2  0  0  0  0  0  0
  137.1360  139.3190  147.8300 C   0  0  0  0  0  1  0  0  0  0  0  0
  136.4140  138.1540  147.1730 C   0  0  0  0  0  2  0  0  0  0  0  0
  1 12  1  0  0  0  0
  2  1  1  0  0  0  0
  3  2  1  0  0  0  0
  4  3  2  0  0  0  0
  5  6  2  0  0  0  0
  5  4  1  0  0  0  0
  6  7  1  0  0  0  0
  7  2  2  0  0  0  0
  8  5  1  0  0  0  0
  9  8  1  0  0  0  0
 10 11  1  0  0  0  0
 10  6  1  0  0  0  0
 12 13  1  0  0  0  0
 13 14  2  0  0  0  0
 15 13  1  0  0  0  0
 16 15  1  0  0  0  0
 17 16  1  0  0  0  0
 18 17  1  0  0  0  0
 19 18  1  0  0  0  0
 21 20  1  0  0  0  0
 21 19  1  0  0  0  0
M  END
>  <MODEL>
4

>  <REMARK>
 VINA RESULT:    -5.537     10.836     13.095
 INTER + INTRA:          -9.998
 INTER:                  -8.079
 INTRA:                  -1.919
 UNBOUND:                -1.062
  Name = CHEMBL549387
  13 active torsions:
  status: ('A' for Active; 'I' for Inactive)
    1  A    between atoms: C_1  and  C_2
    2  A    between atoms: C_2  and  C_3
    3  A    between atoms: C_3  and  C_4
    4  A    between atoms: C_4  and  C_5
    5  A    between atoms: C_5  and  C_6
    6  A    between atoms: C_6  and  C_7
    7  A    between atoms: C_7  and  C_8
    8  A    between atoms: C_8  and  O_10
    9  A    between atoms: O_10  and  C_11
   10  A    between atoms: C_11  and  C_12
   11  A    between atoms: C_15  and  O_16
   12  A    between atoms: C_17  and  O_18
   13  A    between atoms: O_18  and  C_19
                            x       y       z     vdW  Elec       q    Type
                         _______ _______ _______ _____ _____    ______ ____

>  <TORSDO>
F 11

>  <SCORE>
-5.537

>  <RMSD_LB>
10.836

>  <RMSD_UB>
13.095

$$$$
CHEMBL549387
 OpenBabel10162523563D

 21 21  0  0  0  0  0  0  0  0999 V2000
  134.2080  134.3330  153.8120 C   0  0  0  0  0  2  0  0  0  0  0  0
  134.9930  134.8640  154.9840 C   0  0  0  0  0  0  0  0  0  0  0  0
  134.5810  134.5920  156.2920 C   0  0  0  0  0  3  0  0  0  0  0  0
  135.2840  135.1180  157.3750 C   0  0  0  0  0  3  0  0  0  0  0  0
  136.4150  135.9150  157.1660 C   0  0  0  0  0  0  0  0  0  0  0  0
  136.8620  136.1780  155.8650 C   0  0  0  0  0  0  0  0  0  0  0  0
  136.1460  135.6370  154.7860 C   0  0  0  0  0  3  0  0  0  0  0  0
  137.0590  136.4200  158.2610 O   0  0  0  0  0  0  0  0  0  0  0  0
  136.9800  137.3300  158.4720 H   0  0  0  0  0  0  0  0  0  0  0  0
  137.9370  136.9280  155.4700 O   0  0  0  0  0  0  0  0  0  0  0  0
  137.7400  138.3190  155.2620 C   0  0  0  0  0  1  0  0  0  0  0  0
  133.8260  135.4240  152.9680 O   0  0  0  0  0  0  0  0  0  0  0  0
  134.1210  135.2930  151.6470 C   0  0  0  0  0  0  0  0  0  0  0  0
  134.8950  135.9990  151.0150 O   0  0  0  0  0  0  0  0  0  0  0  0
  133.3810  134.1240  151.0490 C   0  0  0  0  0  2  0  0  0  0  0  0
  134.3050  133.2820  150.1770 C   0  0  0  0  0  2  0  0  0  0  0  0
  133.6250  132.8480  148.8800 C   0  0  0  0  0  2  0  0  0  0  0  0
  132.7860  133.9920  148.3070 C   0  0  0  0  0  2  0  0  0  0  0  0
  133.6620  135.0380  147.6220 C   0  0  0  0  0  2  0  0  0  0  0  0
  132.3760  137.0700  146.8840 C   0  0  0  0  0  1  0  0  0  0  0  0
  133.2190  136.4540  147.9880 C   0  0  0  0  0  2  0  0  0  0  0  0
  1  2  1  0  0  0  0
  2  3  1  0  0  0  0
  3  4  2  0  0  0  0
  5  4  1  0  0  0  0
  5  8  1  0  0  0  0
  6  5  2  0  0  0  0
  7  2  2  0  0  0  0
  7  6  1  0  0  0  0
  8  9  1  0  0  0  0
 10  6  1  0  0  0  0
 11 10  1  0  0  0  0
 12  1  1  0  0  0  0
 13 12  1  0  0  0  0
 14 13  2  0  0  0  0
 15 13  1  0  0  0  0
 16 15  1  0  0  0  0
 17 16  1  0  0  0  0
 18 17  1  0  0  0  0
 19 21  1  0  0  0  0
 19 18  1  0  0  0  0
 20 21  1  0  0  0  0
M  END
>  <MODEL>
5

>  <REMARK>
 VINA RESULT:    -5.505     10.363     12.386
 INTER + INTRA:          -9.946
 INTER:                  -9.114
 INTRA:                  -0.832
 UNBOUND:                -1.062
  Name = CHEMBL549387
  13 active torsions:
  status: ('A' for Active; 'I' for Inactive)
    1  A    between atoms: C_1  and  C_2
    2  A    between atoms: C_2  and  C_3
    3  A    between atoms: C_3  and  C_4
    4  A    between atoms: C_4  and  C_5
    5  A    between atoms: C_5  and  C_6
    6  A    between atoms: C_6  and  C_7
    7  A    between atoms: C_7  and  C_8
    8  A    between atoms: C_8  and  O_10
    9  A    between atoms: O_10  and  C_11
   10  A    between atoms: C_11  and  C_12
   11  A    between atoms: C_15  and  O_16
   12  A    between atoms: C_17  and  O_18
   13  A    between atoms: O_18  and  C_19
                            x       y       z     vdW  Elec       q    Type
                         _______ _______ _______ _____ _____    ______ ____

>  <TORSDO>
F 11

>  <SCORE>
-5.505

>  <RMSD_LB>
10.363

>  <RMSD_UB>
12.386

$$$$
CHEMBL549387
 OpenBabel10162523563D

 21 21  0  0  0  0  0  0  0  0999 V2000
  136.4760  135.8840  151.5080 C   0  0  0  0  0  2  0  0  0  0  0  0
  135.9050  135.4050  152.8180 C   0  0  0  0  0  0  0  0  0  0  0  0
  135.0440  134.3040  152.8520 C   0  0  0  0  0  3  0  0  0  0  0  0
  134.4830  133.8870  154.0590 C   0  0  0  0  0  3  0  0  0  0  0  0
  134.7830  134.5580  155.2490 C   0  0  0  0  0  0  0  0  0  0  0  0
  135.6640  135.6460  155.2420 C   0  0  0  0  0  0  0  0  0  0  0  0
  136.2240  136.0500  154.0210 C   0  0  0  0  0  3  0  0  0  0  0  0
  134.1940  134.1200  156.4020 O   0  0  0  0  0  0  0  0  0  0  0  0
  134.6040  134.2840  157.2290 H   0  0  0  0  0  0  0  0  0  0  0  0
  136.0720  136.4180  156.2970 O   0  0  0  0  0  0  0  0  0  0  0  0
  136.8670  137.5620  156.0190 C   0  0  0  0  0  1  0  0  0  0  0  0
  135.6540  135.4160  150.4350 O   0  0  0  0  0  0  0  0  0  0  0  0
  135.2630  136.3490  149.5260 C   0  0  0  0  0  0  0  0  0  0  0  0
  135.9760  137.2210  149.0480 O   0  0  0  0  0  0  0  0  0  0  0  0
  133.8170  136.1540  149.1510 C   0  0  0  0  0  2  0  0  0  0  0  0
  133.0950  135.3010  150.1880 C   0  0  0  0  0  2  0  0  0  0  0  0
  132.6010  133.9830  149.5960 C   0  0  0  0  0  2  0  0  0  0  0  0
  133.6780  132.9030  149.7200 C   0  0  0  0  0  2  0  0  0  0  0  0
  134.2790  132.5550  148.3600 C   0  0  0  0  0  2  0  0  0  0  0  0
  134.3020  133.4910  146.0240 C   0  0  0  0  0  1  0  0  0  0  0  0
  133.4370  133.1300  147.2210 C   0  0  0  0  0  2  0  0  0  0  0  0
  1  2  1  0  0  0  0
  2  3  2  0  0  0  0
  2  7  1  0  0  0  0
  3  4  1  0  0  0  0
  4  5  2  0  0  0  0
  5  8  1  0  0  0  0
  6  5  1  0  0  0  0
  6 10  1  0  0  0  0
  7  6  2  0  0  0  0
  8  9  1  0  0  0  0
 11 10  1  0  0  0  0
 12  1  1  0  0  0  0
 13 12  1  0  0  0  0
 14 13  2  0  0  0  0
 15 13  1  0  0  0  0
 15 16  1  0  0  0  0
 17 18  1  0  0  0  0
 17 16  1  0  0  0  0
 19 18  1  0  0  0  0
 20 21  1  0  0  0  0
 21 19  1  0  0  0  0
M  END
>  <MODEL>
6

>  <REMARK>
 VINA RESULT:    -5.500     10.371     12.403
 INTER + INTRA:          -9.938
 INTER:                  -8.753
 INTRA:                  -1.185
 UNBOUND:                -1.062
  Name = CHEMBL549387
  13 active torsions:
  status: ('A' for Active; 'I' for Inactive)
    1  A    between atoms: C_1  and  C_2
    2  A    between atoms: C_2  and  C_3
    3  A    between atoms: C_3  and  C_4
    4  A    between atoms: C_4  and  C_5
    5  A    between atoms: C_5  and  C_6
    6  A    between atoms: C_6  and  C_7
    7  A    between atoms: C_7  and  C_8
    8  A    between atoms: C_8  and  O_10
    9  A    between atoms: O_10  and  C_11
   10  A    between atoms: C_11  and  C_12
   11  A    between atoms: C_15  and  O_16
   12  A    between atoms: C_17  and  O_18
   13  A    between atoms: O_18  and  C_19
                            x       y       z     vdW  Elec       q    Type
                         _______ _______ _______ _____ _____    ______ ____

>  <TORSDO>
F 11

>  <SCORE>
-5.500

>  <RMSD_LB>
10.371

>  <RMSD_UB>
12.403

$$$$
CHEMBL549387
 OpenBabel10162523563D

 21 21  0  0  0  0  0  0  0  0999 V2000
  146.9110  140.3260  150.1410 C   0  0  0  0  0  2  0  0  0  0  0  0
  147.4570  140.7460  151.4820 C   0  0  0  0  0  0  0  0  0  0  0  0
  148.4030  141.7710  151.5700 C   0  0  0  0  0  3  0  0  0  0  0  0
  148.9390  142.1300  152.8070 C   0  0  0  0  0  3  0  0  0  0  0  0
  148.5280  141.4750  153.9730 C   0  0  0  0  0  0  0  0  0  0  0  0
  147.5620  140.4640  153.9120 C   0  0  0  0  0  0  0  0  0  0  0  0
  147.0290  140.1180  152.6610 C   0  0  0  0  0  3  0  0  0  0  0  0
  149.0960  141.8540  155.1580 O   0  0  0  0  0  0  0  0  0  0  0  0
  150.0290  141.8450  155.2540 H   0  0  0  0  0  0  0  0  0  0  0  0
  147.0420  139.7190  154.9370 O   0  0  0  0  0  0  0  0  0  0  0  0
  147.8130  138.6330  155.4300 C   0  0  0  0  0  1  0  0  0  0  0  0
  145.7970  139.4500  150.3380 O   0  0  0  0  0  0  0  0  0  0  0  0
  144.5960  139.8910  149.8760 C   0  0  0  0  0  0  0  0  0  0  0  0
  144.2690  139.9680  148.7010 O   0  0  0  0  0  0  0  0  0  0  0  0
  143.6870  140.2560  151.0210 C   0  0  0  0  0  2  0  0  0  0  0  0
  142.5200  139.2810  151.1230 C   0  0  0  0  0  2  0  0  0  0  0  0
  142.9790  137.8850  151.5410 C   0  0  0  0  0  2  0  0  0  0  0  0
  142.8660  137.7150  153.0560 C   0  0  0  0  0  2  0  0  0  0  0  0
  144.2080  137.9500  153.7470 C   0  0  0  0  0  2  0  0  0  0  0  0
  146.0940  136.5510  152.8430 C   0  0  0  0  0  1  0  0  0  0  0  0
  144.9930  136.6450  153.8850 C   0  0  0  0  0  2  0  0  0  0  0  0
  1 12  1  0  0  0  0
  1  2  1  0  0  0  0
  2  3  2  0  0  0  0
  2  7  1  0  0  0  0
  3  4  1  0  0  0  0
  4  5  2  0  0  0  0
  5  8  1  0  0  0  0
  6  5  1  0  0  0  0
  6 10  1  0  0  0  0
  7  6  2  0  0  0  0
  8  9  1  0  0  0  0
 10 11  1  0  0  0  0
 13 12  1  0  0  0  0
 13 15  1  0  0  0  0
 14 13  2  0  0  0  0
 15 16  1  0  0  0  0
 16 17  1  0  0  0  0
 17 18  1  0  0  0  0
 18 19  1  0  0  0  0
 19 21  1  0  0  0  0
 20 21  1  0  0  0  0
M  END
>  <MODEL>
7

>  <REMARK>
 VINA RESULT:    -5.456      1.845      4.216
 INTER + INTRA:          -9.868
 INTER:                  -8.529
 INTRA:                  -1.339
 UNBOUND:                -1.062
  Name = CHEMBL549387
  13 active torsions:
  status: ('A' for Active; 'I' for Inactive)
    1  A    between atoms: C_1  and  C_2
    2  A    between atoms: C_2  and  C_3
    3  A    between atoms: C_3  and  C_4
    4  A    between atoms: C_4  and  C_5
    5  A    between atoms: C_5  and  C_6
    6  A    between atoms: C_6  and  C_7
    7  A    between atoms: C_7  and  C_8
    8  A    between atoms: C_8  and  O_10
    9  A    between atoms: O_10  and  C_11
   10  A    between atoms: C_11  and  C_12
   11  A    between atoms: C_15  and  O_16
   12  A    between atoms: C_17  and  O_18
   13  A    between atoms: O_18  and  C_19
                            x       y       z     vdW  Elec       q    Type
                         _______ _______ _______ _____ _____    ______ ____

>  <TORSDO>
F 11

>  <SCORE>
-5.456

>  <RMSD_LB>
1.845

>  <RMSD_UB>
4.216

$$$$
CHEMBL549387
 OpenBabel10162523563D

 21 21  0  0  0  0  0  0  0  0999 V2000
  137.0270  136.6770  155.1640 C   0  0  0  0  0  2  0  0  0  0  0  0
  136.1070  135.8270  154.3250 C   0  0  0  0  0  0  0  0  0  0  0  0
  135.1060  135.0610  154.9300 C   0  0  0  0  0  3  0  0  0  0  0  0
  134.2830  134.2420  154.1570 C   0  0  0  0  0  3  0  0  0  0  0  0
  134.4430  134.1860  152.7680 C   0  0  0  0  0  0  0  0  0  0  0  0
  135.4210  134.9650  152.1380 C   0  0  0  0  0  0  0  0  0  0  0  0
  136.2380  135.7870  152.9300 C   0  0  0  0  0  3  0  0  0  0  0  0
  133.6210  133.3550  152.0580 O   0  0  0  0  0  0  0  0  0  0  0  0
  133.3720  132.5260  152.4160 H   0  0  0  0  0  0  0  0  0  0  0  0
  135.7210  135.0400  150.8040 O   0  0  0  0  0  0  0  0  0  0  0  0
  135.7840  136.3270  150.2070 C   0  0  0  0  0  1  0  0  0  0  0  0
  137.2470  137.9260  154.5030 O   0  0  0  0  0  0  0  0  0  0  0  0
  138.5370  138.3520  154.4360 C   0  0  0  0  0  0  0  0  0  0  0  0
  139.2250  138.6930  155.3880 O   0  0  0  0  0  0  0  0  0  0  0  0
  139.0340  138.3230  153.0140 C   0  0  0  0  0  2  0  0  0  0  0  0
  140.5400  138.0880  152.9670 C   0  0  0  0  0  2  0  0  0  0  0  0
  140.9650  137.3740  151.6860 C   0  0  0  0  0  2  0  0  0  0  0  0
  142.1180  138.1200  151.0140 C   0  0  0  0  0  2  0  0  0  0  0  0
  141.7920  139.6000  150.8240 C   0  0  0  0  0  2  0  0  0  0  0  0
  139.6750  140.6670  149.9840 C   0  0  0  0  0  1  0  0  0  0  0  0
  140.8760  139.8130  149.6190 C   0  0  0  0  0  2  0  0  0  0  0  0
  2  3  1  0  0  0  0
  2  1  1  0  0  0  0
  4  3  2  0  0  0  0
  5  4  1  0  0  0  0
  6  5  2  0  0  0  0
  6  7  1  0  0  0  0
  7  2  2  0  0  0  0
  8  9  1  0  0  0  0
  8  5  1  0  0  0  0
 10  6  1  0  0  0  0
 11 10  1  0  0  0  0
 12  1  1  0  0  0  0
 13 12  1  0  0  0  0
 13 14  2  0  0  0  0
 15 13  1  0  0  0  0
 16 15  1  0  0  0  0
 17 16  1  0  0  0  0
 18 17  1  0  0  0  0
 19 18  1  0  0  0  0
 21 20  1  0  0  0  0
 21 19  1  0  0  0  0
M  END
>  <MODEL>
8

>  <REMARK>
 VINA RESULT:    -5.420      7.480      9.638
 INTER + INTRA:          -9.810
 INTER:                  -8.813
 INTRA:                  -0.997
 UNBOUND:                -1.062
  Name = CHEMBL549387
  13 active torsions:
  status: ('A' for Active; 'I' for Inactive)
    1  A    between atoms: C_1  and  C_2
    2  A    between atoms: C_2  and  C_3
    3  A    between atoms: C_3  and  C_4
    4  A    between atoms: C_4  and  C_5
    5  A    between atoms: C_5  and  C_6
    6  A    between atoms: C_6  and  C_7
    7  A    between atoms: C_7  and  C_8
    8  A    between atoms: C_8  and  O_10
    9  A    between atoms: O_10  and  C_11
   10  A    between atoms: C_11  and  C_12
   11  A    between atoms: C_15  and  O_16
   12  A    between atoms: C_17  and  O_18
   13  A    between atoms: O_18  and  C_19
                            x       y       z     vdW  Elec       q    Type
                         _______ _______ _______ _____ _____    ______ ____

>  <TORSDO>
F 11

>  <SCORE>
-5.420

>  <RMSD_LB>
7.480

>  <RMSD_UB>
9.638

$$$$
CHEMBL549387
 OpenBabel10162523563D

 21 21  0  0  0  0  0  0  0  0999 V2000
  138.4060  137.5270  156.2190 C   0  0  0  0  0  2  0  0  0  0  0  0
  137.2010  136.6290  156.3390 C   0  0  0  0  0  0  0  0  0  0  0  0
  136.6940  136.2900  157.5970 C   0  0  0  0  0  3  0  0  0  0  0  0
  135.6050  135.4260  157.7080 C   0  0  0  0  0  3  0  0  0  0  0  0
  135.0020  134.8960  156.5620 C   0  0  0  0  0  0  0  0  0  0  0  0
  135.4760  135.2420  155.2910 C   0  0  0  0  0  0  0  0  0  0  0  0
  136.5690  136.1170  155.1960 C   0  0  0  0  0  3  0  0  0  0  0  0
  133.9490  134.0400  156.7260 O   0  0  0  0  0  0  0  0  0  0  0  0
  133.9870  133.3710  157.3810 H   0  0  0  0  0  0  0  0  0  0  0  0
  135.0180  134.8270  154.0690 O   0  0  0  0  0  0  0  0  0  0  0  0
  133.9010  135.5040  153.5110 C   0  0  0  0  0  1  0  0  0  0  0  0
  138.2840  138.3240  155.0370 O   0  0  0  0  0  0  0  0  0  0  0  0
  139.4420  138.8180  154.5240 C   0  0  0  0  0  0  0  0  0  0  0  0
  140.3890  139.2380  155.1750 O   0  0  0  0  0  0  0  0  0  0  0  0
  139.4260  138.7580  153.0190 C   0  0  0  0  0  2  0  0  0  0  0  0
  138.4450  137.6990  152.5260 C   0  0  0  0  0  2  0  0  0  0  0  0
  138.7070  137.3130  151.0720 C   0  0  0  0  0  2  0  0  0  0  0  0
  137.3960  137.2640  150.2860 C   0  0  0  0  0  2  0  0  0  0  0  0
  136.3540  136.3980  150.9910 C   0  0  0  0  0  2  0  0  0  0  0  0
  136.3560  134.6170  149.2140 C   0  0  0  0  0  1  0  0  0  0  0  0
  136.5730  134.9160  150.6870 C   0  0  0  0  0  2  0  0  0  0  0  0
  1  2  1  0  0  0  0
  2  3  1  0  0  0  0
  3  4  2  0  0  0  0
  5  8  1  0  0  0  0
  5  4  1  0  0  0  0
  6  5  2  0  0  0  0
  7  6  1  0  0  0  0
  7  2  2  0  0  0  0
  8  9  1  0  0  0  0
 10  6  1  0  0  0  0
 11 10  1  0  0  0  0
 12  1  1  0  0  0  0
 13 12  1  0  0  0  0
 13 14  2  0  0  0  0
 15 13  1  0  0  0  0
 16 15  1  0  0  0  0
 17 16  1  0  0  0  0
 18 19  1  0  0  0  0
 18 17  1  0  0  0  0
 20 21  1  0  0  0  0
 21 19  1  0  0  0  0
M  END
>  <MODEL>
9

>  <REMARK>
 VINA RESULT:    -5.349      8.020     10.436
 INTER + INTRA:          -9.695
 INTER:                  -8.633
 INTRA:                  -1.062
 UNBOUND:                -1.062
  Name = CHEMBL549387
  13 active torsions:
  status: ('A' for Active; 'I' for Inactive)
    1  A    between atoms: C_1  and  C_2
    2  A    between atoms: C_2  and  C_3
    3  A    between atoms: C_3  and  C_4
    4  A    between atoms: C_4  and  C_5
    5  A    between atoms: C_5  and  C_6
    6  A    between atoms: C_6  and  C_7
    7  A    between atoms: C_7  and  C_8
    8  A    between atoms: C_8  and  O_10
    9  A    between atoms: O_10  and  C_11
   10  A    between atoms: C_11  and  C_12
   11  A    between atoms: C_15  and  O_16
   12  A    between atoms: C_17  and  O_18
   13  A    between atoms: O_18  and  C_19
                            x       y       z     vdW  Elec       q    Type
                         _______ _______ _______ _____ _____    ______ ____

>  <TORSDO>
F 11

>  <SCORE>
-5.349

>  <RMSD_LB>
8.020

>  <RMSD_UB>
10.436

$$$$
