CHEMBL4586551
 OpenBabel10162523403D

 28 29  0  0  0  0  0  0  0  0999 V2000
  142.0870  136.6410  149.8830 N   0  0  0  0  0  0  0  0  0  0  0  0
  142.2800  135.5830  149.0200 C   0  0  0  0  0  0  0  0  0  0  0  0
  141.3580  134.9520  148.5180 O   0  0  0  0  0  0  0  0  0  0  0  0
  142.8650  137.0640  150.3150 H   0  0  0  0  0  0  0  0  0  0  0  0
  140.7590  137.1380  150.1610 C   0  0  0  0  0  2  0  0  0  0  0  0
  140.3270  138.2290  154.3370 C   0  0  0  0  0  0  0  0  0  0  0  0
  141.5930  138.0410  153.7650 C   0  0  0  0  0  3  0  0  0  0  0  0
  141.7300  137.7080  152.4130 C   0  0  0  0  0  3  0  0  0  0  0  0
  140.6050  137.5290  151.6070 C   0  0  0  0  0  0  0  0  0  0  0  0
  139.3400  137.7190  152.1760 C   0  0  0  0  0  3  0  0  0  0  0  0
  139.1900  138.0720  153.5280 C   0  0  0  0  0  0  0  0  0  0  0  0
  140.3870  137.4020  156.5670 C   0  0  0  0  0  1  0  0  0  0  0  0
  140.1520  138.4830  155.6720 O   0  0  0  0  0  0  0  0  0  0  0  0
  137.8760  138.1770  153.9120 O   0  0  0  0  0  0  0  0  0  0  0  0
  137.2410  136.9830  154.3540 C   0  0  0  0  0  1  0  0  0  0  0  0
  143.7400  135.2710  148.7670 C   0  0  0  0  0  2  0  0  0  0  0  0
  144.6320  136.0890  149.6920 C   0  0  0  0  0  2  0  0  0  0  0  0
  144.7280  137.4290  149.2000 O   0  0  0  0  0  0  0  0  0  0  0  0
  145.3640  138.3250  150.0230 C   0  0  0  0  0  0  0  0  0  0  0  0
  145.1100  138.4920  151.3820 C   0  0  0  0  0  3  0  0  0  0  0  0
  145.8180  139.4430  152.1290 C   0  0  0  0  0  3  0  0  0  0  0  0
  146.8010  140.2560  151.5460 C   0  0  0  0  0  0  0  0  0  0  0  0
  147.0510  140.0670  150.1730 C   0  0  0  0  0  3  0  0  0  0  0  0
  146.3410  139.1170  149.4270 C   0  0  0  0  0  3  0  0  0  0  0  0
  147.5810  141.3060  152.3590 C   0  0  0  0  0  0  0  0  0  0  0  0
  148.5680  140.6830  153.3740 C   0  0  0  0  0  1  0  0  0  0  0  0
  148.4020  142.2020  151.4080 C   0  0  0  0  0  1  0  0  0  0  0  0
  146.6070  142.1930  153.1630 C   0  0  0  0  0  1  0  0  0  0  0  0
  1  5  1  0  0  0  0
  1  4  1  0  0  0  0
  2  1  1  0  0  0  0
  3  2  2  0  0  0  0
  5  9  1  0  0  0  0
  6 13  1  0  0  0  0
  7  6  1  0  0  0  0
  8  7  2  0  0  0  0
  9 10  2  0  0  0  0
  9  8  1  0  0  0  0
 10 11  1  0  0  0  0
 11 14  1  0  0  0  0
 11  6  2  0  0  0  0
 13 12  1  0  0  0  0
 14 15  1  0  0  0  0
 16  2  1  0  0  0  0
 16 17  1  0  0  0  0
 18 17  1  0  0  0  0
 18 19  1  0  0  0  0
 19 20  1  0  0  0  0
 20 21  2  0  0  0  0
 22 21  1  0  0  0  0
 22 25  1  0  0  0  0
 23 22  2  0  0  0  0
 24 19  2  0  0  0  0
 24 23  1  0  0  0  0
 25 28  1  0  0  0  0
 25 26  1  0  0  0  0
 27 25  1  0  0  0  0
M  END
>  <MODEL>
1

>  <REMARK>
 VINA RESULT:    -6.961      0.000      0.000
 INTER + INTRA:         -11.986
 INTER:                 -10.452
 INTRA:                  -1.533
 UNBOUND:                -1.362
  Name = CHEMBL4586551
  14 active torsions:
  status: ('A' for Active; 'I' for Inactive)
    1  A    between atoms: C_1  and  O_2
    2  A    between atoms: O_2  and  C_3
    3  A    between atoms: C_6  and  C_7
    4  A    between atoms: C_7  and  N_8
    5  A    between atoms: C_9  and  C_11
    6  A    between atoms: C_11  and  C_12
    7  A    between atoms: C_12  and  O_13
    8  A    between atoms: O_13  and  C_14
    9  A    between atoms: C_17  and  C_18
   10  A    between atoms: C_18  and  C_19
   11  A    between atoms: C_18  and  C_20
   12  A    between atoms: C_18  and  C_21
   13  A    between atoms: C_25  and  O_26
   14  A    between atoms: O_26  and  C_27
                            x       y       z     vdW  Elec       q    Type
                         _______ _______ _______ _____ _____    ______ ____

>  <TORSDO>
F 9

>  <SCORE>
-6.961

>  <RMSD_LB>
0.000

>  <RMSD_UB>
0.000

$$$$
CHEMBL4586551
 OpenBabel10162523403D

 28 29  0  0  0  0  0  0  0  0999 V2000
  136.9130  133.8800  144.3320 N   0  0  0  0  0  0  0  0  0  0  0  0
  136.6590  132.7560  143.5750 C   0  0  0  0  0  0  0  0  0  0  0  0
  136.5550  132.7800  142.3540 O   0  0  0  0  0  0  0  0  0  0  0  0
  136.9130  133.8140  145.3140 H   0  0  0  0  0  0  0  0  0  0  0  0
  137.1810  135.1530  143.7020 C   0  0  0  0  0  2  0  0  0  0  0  0
  133.7010  137.7420  143.7190 C   0  0  0  0  0  0  0  0  0  0  0  0
  134.6050  137.7500  142.6460 C   0  0  0  0  0  3  0  0  0  0  0  0
  135.7160  136.9000  142.6340 C   0  0  0  0  0  3  0  0  0  0  0  0
  135.9650  136.0400  143.7060 C   0  0  0  0  0  0  0  0  0  0  0  0
  135.0630  136.0300  144.7770 C   0  0  0  0  0  3  0  0  0  0  0  0
  133.9330  136.8660  144.7910 C   0  0  0  0  0  0  0  0  0  0  0  0
  132.9150  139.9020  144.3350 C   0  0  0  0  0  1  0  0  0  0  0  0
  132.6450  138.6120  143.7990 O   0  0  0  0  0  0  0  0  0  0  0  0
  133.1900  136.7420  145.9380 O   0  0  0  0  0  0  0  0  0  0  0  0
  133.9000  136.7860  147.1700 C   0  0  0  0  0  1  0  0  0  0  0  0
  136.5080  131.4960  144.4010 C   0  0  0  0  0  2  0  0  0  0  0  0
  136.5110  131.8250  145.8880 C   0  0  0  0  0  2  0  0  0  0  0  0
  135.2320  132.3440  146.2650 O   0  0  0  0  0  0  0  0  0  0  0  0
  135.1710  132.9560  147.4920 C   0  0  0  0  0  0  0  0  0  0  0  0
  134.1860  132.7400  148.4520 C   0  0  0  0  0  3  0  0  0  0  0  0
  134.2180  133.4230  149.6750 C   0  0  0  0  0  3  0  0  0  0  0  0
  135.2330  134.3430  149.9790 C   0  0  0  0  0  0  0  0  0  0  0  0
  136.2260  134.5410  149.0010 C   0  0  0  0  0  3  0  0  0  0  0  0
  136.1910  133.8580  147.7780 C   0  0  0  0  0  3  0  0  0  0  0  0
  135.2740  135.1010  151.3190 C   0  0  0  0  0  0  0  0  0  0  0  0
  136.2730  136.2820  151.3230 C   0  0  0  0  0  1  0  0  0  0  0  0
  133.8780  135.6770  151.6380 C   0  0  0  0  0  1  0  0  0  0  0  0
  135.6940  134.1510  152.4600 C   0  0  0  0  0  1  0  0  0  0  0  0
  1  4  1  0  0  0  0
  2  1  1  0  0  0  0
  2 16  1  0  0  0  0
  3  2  2  0  0  0  0
  5  9  1  0  0  0  0
  5  1  1  0  0  0  0
  6 13  1  0  0  0  0
  6 11  1  0  0  0  0
  7  6  2  0  0  0  0
  8  7  1  0  0  0  0
  8  9  2  0  0  0  0
  9 10  1  0  0  0  0
 10 11  2  0  0  0  0
 11 14  1  0  0  0  0
 13 12  1  0  0  0  0
 14 15  1  0  0  0  0
 16 17  1  0  0  0  0
 17 18  1  0  0  0  0
 18 19  1  0  0  0  0
 19 24  2  0  0  0  0
 19 20  1  0  0  0  0
 20 21  2  0  0  0  0
 21 22  1  0  0  0  0
 22 25  1  0  0  0  0
 23 22  2  0  0  0  0
 24 23  1  0  0  0  0
 25 26  1  0  0  0  0
 25 27  1  0  0  0  0
 25 28  1  0  0  0  0
M  END
>  <MODEL>
2

>  <REMARK>
 VINA RESULT:    -6.793      8.963     11.532
 INTER + INTRA:         -11.729
 INTER:                  -9.900
 INTRA:                  -1.829
 UNBOUND:                -1.362
  Name = CHEMBL4586551
  14 active torsions:
  status: ('A' for Active; 'I' for Inactive)
    1  A    between atoms: C_1  and  O_2
    2  A    between atoms: O_2  and  C_3
    3  A    between atoms: C_6  and  C_7
    4  A    between atoms: C_7  and  N_8
    5  A    between atoms: C_9  and  C_11
    6  A    between atoms: C_11  and  C_12
    7  A    between atoms: C_12  and  O_13
    8  A    between atoms: O_13  and  C_14
    9  A    between atoms: C_17  and  C_18
   10  A    between atoms: C_18  and  C_19
   11  A    between atoms: C_18  and  C_20
   12  A    between atoms: C_18  and  C_21
   13  A    between atoms: C_25  and  O_26
   14  A    between atoms: O_26  and  C_27
                            x       y       z     vdW  Elec       q    Type
                         _______ _______ _______ _____ _____    ______ ____

>  <TORSDO>
F 9

>  <SCORE>
-6.793

>  <RMSD_LB>
8.963

>  <RMSD_UB>
11.532

$$$$
CHEMBL4586551
 OpenBabel10162523403D

 28 29  0  0  0  0  0  0  0  0999 V2000
  142.3330  138.7190  151.5080 N   0  0  0  0  0  0  0  0  0  0  0  0
  140.9640  138.8620  151.4350 C   0  0  0  0  0  0  0  0  0  0  0  0
  140.4170  139.7920  150.8550 O   0  0  0  0  0  0  0  0  0  0  0  0
  142.7180  137.9930  152.0510 H   0  0  0  0  0  0  0  0  0  0  0  0
  143.2110  139.6200  150.7970 C   0  0  0  0  0  2  0  0  0  0  0  0
  146.1310  141.4530  153.4290 C   0  0  0  0  0  0  0  0  0  0  0  0
  145.8260  142.0160  152.1810 C   0  0  0  0  0  3  0  0  0  0  0  0
  144.8690  141.4340  151.3430 C   0  0  0  0  0  3  0  0  0  0  0  0
  144.2140  140.2600  151.7190 C   0  0  0  0  0  0  0  0  0  0  0  0
  144.5160  139.6980  152.9650 C   0  0  0  0  0  3  0  0  0  0  0  0
  145.4610  140.2840  153.8250 C   0  0  0  0  0  0  0  0  0  0  0  0
  148.4480  141.5450  153.9640 C   0  0  0  0  0  1  0  0  0  0  0  0
  147.1130  141.9530  154.2430 O   0  0  0  0  0  0  0  0  0  0  0  0
  145.6490  139.5700  154.9810 O   0  0  0  0  0  0  0  0  0  0  0  0
  146.4710  138.4120  154.8930 C   0  0  0  0  0  1  0  0  0  0  0  0
  140.2050  137.7660  152.1550 C   0  0  0  0  0  2  0  0  0  0  0  0
  138.7790  137.6650  151.6270 C   0  0  0  0  0  2  0  0  0  0  0  0
  138.7510  136.7900  150.4960 O   0  0  0  0  0  0  0  0  0  0  0  0
  137.5710  136.1180  150.2870 C   0  0  0  0  0  0  0  0  0  0  0  0
  136.5480  135.9800  151.2210 C   0  0  0  0  0  3  0  0  0  0  0  0
  135.3830  135.2680  150.9030 C   0  0  0  0  0  3  0  0  0  0  0  0
  135.2030  134.6730  149.6450 C   0  0  0  0  0  0  0  0  0  0  0  0
  136.2430  134.8320  148.7110 C   0  0  0  0  0  3  0  0  0  0  0  0
  137.4080  135.5420  149.0320 C   0  0  0  0  0  3  0  0  0  0  0  0
  133.9280  133.8860  149.2890 C   0  0  0  0  0  0  0  0  0  0  0  0
  134.2180  132.4890  148.6930 C   0  0  0  0  0  1  0  0  0  0  0  0
  133.0700  133.6780  150.5550 C   0  0  0  0  0  1  0  0  0  0  0  0
  133.0950  134.6580  148.2440 C   0  0  0  0  0  1  0  0  0  0  0  0
  1  4  1  0  0  0  0
  2  1  1  0  0  0  0
  2 16  1  0  0  0  0
  3  2  2  0  0  0  0
  5  1  1  0  0  0  0
  5  9  1  0  0  0  0
  6 11  1  0  0  0  0
  6 13  1  0  0  0  0
  7  6  2  0  0  0  0
  8  9  2  0  0  0  0
  8  7  1  0  0  0  0
  9 10  1  0  0  0  0
 10 11  2  0  0  0  0
 11 14  1  0  0  0  0
 12 13  1  0  0  0  0
 15 14  1  0  0  0  0
 17 16  1  0  0  0  0
 18 17  1  0  0  0  0
 19 18  1  0  0  0  0
 19 20  1  0  0  0  0
 21 20  2  0  0  0  0
 22 21  1  0  0  0  0
 23 24  1  0  0  0  0
 23 22  2  0  0  0  0
 24 19  2  0  0  0  0
 25 22  1  0  0  0  0
 25 27  1  0  0  0  0
 26 25  1  0  0  0  0
 28 25  1  0  0  0  0
M  END
>  <MODEL>
3

>  <REMARK>
 VINA RESULT:    -6.767      4.227      9.584
 INTER + INTRA:         -11.689
 INTER:                 -10.790
 INTRA:                  -0.899
 UNBOUND:                -1.362
  Name = CHEMBL4586551
  14 active torsions:
  status: ('A' for Active; 'I' for Inactive)
    1  A    between atoms: C_1  and  O_2
    2  A    between atoms: O_2  and  C_3
    3  A    between atoms: C_6  and  C_7
    4  A    between atoms: C_7  and  N_8
    5  A    between atoms: C_9  and  C_11
    6  A    between atoms: C_11  and  C_12
    7  A    between atoms: C_12  and  O_13
    8  A    between atoms: O_13  and  C_14
    9  A    between atoms: C_17  and  C_18
   10  A    between atoms: C_18  and  C_19
   11  A    between atoms: C_18  and  C_20
   12  A    between atoms: C_18  and  C_21
   13  A    between atoms: C_25  and  O_26
   14  A    between atoms: O_26  and  C_27
                            x       y       z     vdW  Elec       q    Type
                         _______ _______ _______ _____ _____    ______ ____

>  <TORSDO>
F 9

>  <SCORE>
-6.767

>  <RMSD_LB>
4.227

>  <RMSD_UB>
9.584

$$$$
CHEMBL4586551
 OpenBabel10162523403D

 28 29  0  0  0  0  0  0  0  0999 V2000
  137.1280  138.0110  147.9970 N   0  0  0  0  0  0  0  0  0  0  0  0
  137.2270  139.3390  147.6400 C   0  0  0  0  0  0  0  0  0  0  0  0
  137.7190  140.1930  148.3680 O   0  0  0  0  0  0  0  0  0  0  0  0
  136.6560  137.3820  147.4040 H   0  0  0  0  0  0  0  0  0  0  0  0
  137.7090  137.5300  149.2300 C   0  0  0  0  0  2  0  0  0  0  0  0
  134.7460  135.6730  151.7970 C   0  0  0  0  0  0  0  0  0  0  0  0
  136.0260  135.9870  152.2760 C   0  0  0  0  0  3  0  0  0  0  0  0
  136.9730  136.6030  151.4520 C   0  0  0  0  0  3  0  0  0  0  0  0
  136.6730  136.8970  150.1200 C   0  0  0  0  0  0  0  0  0  0  0  0
  135.3950  136.5870  149.6410 C   0  0  0  0  0  3  0  0  0  0  0  0
  134.4290  135.9850  150.4650 C   0  0  0  0  0  0  0  0  0  0  0  0
  134.2470  134.5350  153.8260 C   0  0  0  0  0  1  0  0  0  0  0  0
  133.8190  135.0030  152.5520 O   0  0  0  0  0  0  0  0  0  0  0  0
  133.2520  135.7230  149.8080 O   0  0  0  0  0  0  0  0  0  0  0  0
  133.2890  135.7650  148.3860 C   0  0  0  0  0  1  0  0  0  0  0  0
  136.6550  139.6380  146.2700 C   0  0  0  0  0  2  0  0  0  0  0  0
  136.8060  138.4330  145.3510 C   0  0  0  0  0  2  0  0  0  0  0  0
  135.7150  137.5320  145.5640 O   0  0  0  0  0  0  0  0  0  0  0  0
  135.9440  136.2220  145.2210 C   0  0  0  0  0  0  0  0  0  0  0  0
  137.1970  135.6520  145.0100 C   0  0  0  0  0  3  0  0  0  0  0  0
  137.3160  134.3010  144.6580 C   0  0  0  0  0  3  0  0  0  0  0  0
  136.1920  133.4760  144.5080 C   0  0  0  0  0  0  0  0  0  0  0  0
  134.9340  134.0660  144.7360 C   0  0  0  0  0  3  0  0  0  0  0  0
  134.8170  135.4180  145.0850 C   0  0  0  0  0  3  0  0  0  0  0  0
  136.3150  131.9910  144.1180 C   0  0  0  0  0  0  0  0  0  0  0  0
  134.9930  131.3860  143.5900 C   0  0  0  0  0  1  0  0  0  0  0  0
  137.3740  131.8260  143.0080 C   0  0  0  0  0  1  0  0  0  0  0  0
  136.7380  131.1490  145.3400 C   0  0  0  0  0  1  0  0  0  0  0  0
  1  5  1  0  0  0  0
  2  1  1  0  0  0  0
  2  3  2  0  0  0  0
  4  1  1  0  0  0  0
  5  9  1  0  0  0  0
  6  7  1  0  0  0  0
  6 13  1  0  0  0  0
  8  7  2  0  0  0  0
  9  8  1  0  0  0  0
 10  9  2  0  0  0  0
 10 11  1  0  0  0  0
 11  6  2  0  0  0  0
 13 12  1  0  0  0  0
 14 11  1  0  0  0  0
 15 14  1  0  0  0  0
 16  2  1  0  0  0  0
 17 18  1  0  0  0  0
 17 16  1  0  0  0  0
 19 18  1  0  0  0  0
 20 19  2  0  0  0  0
 21 20  1  0  0  0  0
 22 21  2  0  0  0  0
 22 23  1  0  0  0  0
 23 24  2  0  0  0  0
 24 19  1  0  0  0  0
 25 22  1  0  0  0  0
 25 28  1  0  0  0  0
 26 25  1  0  0  0  0
 27 25  1  0  0  0  0
M  END
>  <MODEL>
4

>  <REMARK>
 VINA RESULT:    -6.223      7.425     10.490
 INTER + INTRA:         -10.859
 INTER:                  -9.366
 INTRA:                  -1.493
 UNBOUND:                -1.362
  Name = CHEMBL4586551
  14 active torsions:
  status: ('A' for Active; 'I' for Inactive)
    1  A    between atoms: C_1  and  O_2
    2  A    between atoms: O_2  and  C_3
    3  A    between atoms: C_6  and  C_7
    4  A    between atoms: C_7  and  N_8
    5  A    between atoms: C_9  and  C_11
    6  A    between atoms: C_11  and  C_12
    7  A    between atoms: C_12  and  O_13
    8  A    between atoms: O_13  and  C_14
    9  A    between atoms: C_17  and  C_18
   10  A    between atoms: C_18  and  C_19
   11  A    between atoms: C_18  and  C_20
   12  A    between atoms: C_18  and  C_21
   13  A    between atoms: C_25  and  O_26
   14  A    between atoms: O_26  and  C_27
                            x       y       z     vdW  Elec       q    Type
                         _______ _______ _______ _____ _____    ______ ____

>  <TORSDO>
F 9

>  <SCORE>
-6.223

>  <RMSD_LB>
7.425

>  <RMSD_UB>
10.490

$$$$
CHEMBL4586551
 OpenBabel10162523403D

 28 29  0  0  0  0  0  0  0  0999 V2000
  136.9340  137.6180  147.3870 N   0  0  0  0  0  0  0  0  0  0  0  0
  136.8760  138.9620  147.0870 C   0  0  0  0  0  0  0  0  0  0  0  0
  137.3190  139.8340  147.8260 O   0  0  0  0  0  0  0  0  0  0  0  0
  136.4970  136.9680  146.7910 H   0  0  0  0  0  0  0  0  0  0  0  0
  137.6300  137.1510  148.5640 C   0  0  0  0  0  2  0  0  0  0  0  0
  134.8850  135.8870  151.6760 C   0  0  0  0  0  0  0  0  0  0  0  0
  136.2070  136.2460  151.9770 C   0  0  0  0  0  3  0  0  0  0  0  0
  137.0840  136.6720  150.9750 C   0  0  0  0  0  3  0  0  0  0  0  0
  136.6700  136.7240  149.6420 C   0  0  0  0  0  0  0  0  0  0  0  0
  135.3500  136.3680  149.3400 C   0  0  0  0  0  3  0  0  0  0  0  0
  134.4540  135.9560  150.3410 C   0  0  0  0  0  0  0  0  0  0  0  0
  134.1200  135.9430  153.9280 C   0  0  0  0  0  1  0  0  0  0  0  0
  134.0210  135.3950  152.6190 O   0  0  0  0  0  0  0  0  0  0  0  0
  133.2210  135.6120  149.8470 O   0  0  0  0  0  0  0  0  0  0  0  0
  133.2010  134.7850  148.6900 C   0  0  0  0  0  1  0  0  0  0  0  0
  136.2010  139.2550  145.7630 C   0  0  0  0  0  2  0  0  0  0  0  0
  137.2360  139.4230  144.6580 C   0  0  0  0  0  2  0  0  0  0  0  0
  138.2150  138.3850  144.7610 O   0  0  0  0  0  0  0  0  0  0  0  0
  138.0660  137.3320  143.8930 C   0  0  0  0  0  0  0  0  0  0  0  0
  137.2310  137.3180  142.7790 C   0  0  0  0  0  3  0  0  0  0  0  0
  137.1520  136.1830  141.9600 C   0  0  0  0  0  3  0  0  0  0  0  0
  137.9020  135.0280  142.2260 C   0  0  0  0  0  0  0  0  0  0  0  0
  138.7470  135.0640  143.3510 C   0  0  0  0  0  3  0  0  0  0  0  0
  138.8240  136.1980  144.1700 C   0  0  0  0  0  3  0  0  0  0  0  0
  137.8170  133.7760  141.3330 C   0  0  0  0  0  0  0  0  0  0  0  0
  137.6210  132.4670  142.1340 C   0  0  0  0  0  1  0  0  0  0  0  0
  136.6260  133.9050  140.3610 C   0  0  0  0  0  1  0  0  0  0  0  0
  139.1140  133.6130  140.5130 C   0  0  0  0  0  1  0  0  0  0  0  0
  1  5  1  0  0  0  0
  2  1  1  0  0  0  0
  2  3  2  0  0  0  0
  4  1  1  0  0  0  0
  5  9  1  0  0  0  0
  6  7  1  0  0  0  0
  6 13  1  0  0  0  0
  8  7  2  0  0  0  0
  9  8  1  0  0  0  0
 10  9  2  0  0  0  0
 10 11  1  0  0  0  0
 11  6  2  0  0  0  0
 13 12  1  0  0  0  0
 14 11  1  0  0  0  0
 15 14  1  0  0  0  0
 16  2  1  0  0  0  0
 17 18  1  0  0  0  0
 17 16  1  0  0  0  0
 19 24  1  0  0  0  0
 19 18  1  0  0  0  0
 20 19  2  0  0  0  0
 21 22  2  0  0  0  0
 21 20  1  0  0  0  0
 22 23  1  0  0  0  0
 23 24  2  0  0  0  0
 25 26  1  0  0  0  0
 25 22  1  0  0  0  0
 27 25  1  0  0  0  0
 28 25  1  0  0  0  0
M  END
>  <MODEL>
5

>  <REMARK>
 VINA RESULT:    -5.685      7.599     10.196
 INTER + INTRA:         -10.039
 INTER:                  -8.643
 INTRA:                  -1.396
 UNBOUND:                -1.362
  Name = CHEMBL4586551
  14 active torsions:
  status: ('A' for Active; 'I' for Inactive)
    1  A    between atoms: C_1  and  O_2
    2  A    between atoms: O_2  and  C_3
    3  A    between atoms: C_6  and  C_7
    4  A    between atoms: C_7  and  N_8
    5  A    between atoms: C_9  and  C_11
    6  A    between atoms: C_11  and  C_12
    7  A    between atoms: C_12  and  O_13
    8  A    between atoms: O_13  and  C_14
    9  A    between atoms: C_17  and  C_18
   10  A    between atoms: C_18  and  C_19
   11  A    between atoms: C_18  and  C_20
   12  A    between atoms: C_18  and  C_21
   13  A    between atoms: C_25  and  O_26
   14  A    between atoms: O_26  and  C_27
                            x       y       z     vdW  Elec       q    Type
                         _______ _______ _______ _____ _____    ______ ____

>  <TORSDO>
F 9

>  <SCORE>
-5.685

>  <RMSD_LB>
7.599

>  <RMSD_UB>
10.196

$$$$
CHEMBL4586551
 OpenBabel10162523403D

 28 29  0  0  0  0  0  0  0  0999 V2000
  144.8470  139.3560  149.9460 N   0  0  0  0  0  0  0  0  0  0  0  0
  144.2060  140.0200  150.9710 C   0  0  0  0  0  0  0  0  0  0  0  0
  144.4910  141.1620  151.3100 O   0  0  0  0  0  0  0  0  0  0  0  0
  144.6270  138.4130  149.7660 H   0  0  0  0  0  0  0  0  0  0  0  0
  145.8360  140.0270  149.1330 C   0  0  0  0  0  2  0  0  0  0  0  0
  146.4160  138.0520  145.3160 C   0  0  0  0  0  0  0  0  0  0  0  0
  147.4940  138.6180  146.0090 C   0  0  0  0  0  3  0  0  0  0  0  0
  147.3080  139.2380  147.2500 C   0  0  0  0  0  3  0  0  0  0  0  0
  146.0340  139.3290  147.8140 C   0  0  0  0  0  0  0  0  0  0  0  0
  144.9560  138.7620  147.1240 C   0  0  0  0  0  3  0  0  0  0  0  0
  145.1350  138.1200  145.8860 C   0  0  0  0  0  0  0  0  0  0  0  0
  146.3040  138.3630  142.9590 C   0  0  0  0  0  1  0  0  0  0  0  0
  146.5490  137.5040  144.0660 O   0  0  0  0  0  0  0  0  0  0  0  0
  143.9590  137.6620  145.3460 O   0  0  0  0  0  0  0  0  0  0  0  0
  143.0110  138.6450  144.9470 C   0  0  0  0  0  1  0  0  0  0  0  0
  143.1290  139.1940  151.6420 C   0  0  0  0  0  2  0  0  0  0  0  0
  142.7400  138.0070  150.7690 C   0  0  0  0  0  2  0  0  0  0  0  0
  143.3890  136.8270  151.2530 O   0  0  0  0  0  0  0  0  0  0  0  0
  144.3820  136.3190  150.4530 C   0  0  0  0  0  0  0  0  0  0  0  0
  145.7280  136.2330  150.7980 C   0  0  0  0  0  3  0  0  0  0  0  0
  146.6630  135.6980  149.9000 C   0  0  0  0  0  3  0  0  0  0  0  0
  146.2840  135.2330  148.6320 C   0  0  0  0  0  0  0  0  0  0  0  0
  144.9180  135.3200  148.3040 C   0  0  0  0  0  3  0  0  0  0  0  0
  143.9860  135.8560  149.2020 C   0  0  0  0  0  3  0  0  0  0  0  0
  147.3050  134.6480  147.6380 C   0  0  0  0  0  0  0  0  0  0  0  0
  147.7960  133.2340  148.0280 C   0  0  0  0  0  1  0  0  0  0  0  0
  146.6720  134.5460  146.2350 C   0  0  0  0  0  1  0  0  0  0  0  0
  148.5530  135.5520  147.5570 C   0  0  0  0  0  1  0  0  0  0  0  0
  1  2  1  0  0  0  0
  2  3  2  0  0  0  0
  2 16  1  0  0  0  0
  4  1  1  0  0  0  0
  5  1  1  0  0  0  0
  6 11  2  0  0  0  0
  6  7  1  0  0  0  0
  7  8  2  0  0  0  0
  8  9  1  0  0  0  0
  9  5  1  0  0  0  0
 10  9  2  0  0  0  0
 11 10  1  0  0  0  0
 12 13  1  0  0  0  0
 13  6  1  0  0  0  0
 14 11  1  0  0  0  0
 15 14  1  0  0  0  0
 17 18  1  0  0  0  0
 17 16  1  0  0  0  0
 19 20  1  0  0  0  0
 19 18  1  0  0  0  0
 21 20  2  0  0  0  0
 22 21  1  0  0  0  0
 23 22  2  0  0  0  0
 23 24  1  0  0  0  0
 24 19  2  0  0  0  0
 25 26  1  0  0  0  0
 25 22  1  0  0  0  0
 27 25  1  0  0  0  0
 28 25  1  0  0  0  0
M  END
>  <MODEL>
6

>  <REMARK>
 VINA RESULT:    -5.444      3.643      7.955
 INTER + INTRA:          -9.671
 INTER:                  -7.119
 INTRA:                  -2.552
 UNBOUND:                -1.362
  Name = CHEMBL4586551
  14 active torsions:
  status: ('A' for Active; 'I' for Inactive)
    1  A    between atoms: C_1  and  O_2
    2  A    between atoms: O_2  and  C_3
    3  A    between atoms: C_6  and  C_7
    4  A    between atoms: C_7  and  N_8
    5  A    between atoms: C_9  and  C_11
    6  A    between atoms: C_11  and  C_12
    7  A    between atoms: C_12  and  O_13
    8  A    between atoms: O_13  and  C_14
    9  A    between atoms: C_17  and  C_18
   10  A    between atoms: C_18  and  C_19
   11  A    between atoms: C_18  and  C_20
   12  A    between atoms: C_18  and  C_21
   13  A    between atoms: C_25  and  O_26
   14  A    between atoms: O_26  and  C_27
                            x       y       z     vdW  Elec       q    Type
                         _______ _______ _______ _____ _____    ______ ____

>  <TORSDO>
F 9

>  <SCORE>
-5.444

>  <RMSD_LB>
3.643

>  <RMSD_UB>
7.955

$$$$
CHEMBL4586551
 OpenBabel10162523403D

 28 29  0  0  0  0  0  0  0  0999 V2000
  132.8210  159.0700  154.5610 N   0  0  0  0  0  0  0  0  0  0  0  0
  133.5260  159.3940  155.7000 C   0  0  0  0  0  0  0  0  0  0  0  0
  133.3660  158.8220  156.7720 O   0  0  0  0  0  0  0  0  0  0  0  0
  132.9380  159.6120  153.7470 H   0  0  0  0  0  0  0  0  0  0  0  0
  131.9140  157.9450  154.5450 C   0  0  0  0  0  2  0  0  0  0  0  0
  132.9910  155.0750  151.4770 C   0  0  0  0  0  0  0  0  0  0  0  0
  133.5740  156.3490  151.5130 C   0  0  0  0  0  3  0  0  0  0  0  0
  133.2400  157.2660  152.5150 C   0  0  0  0  0  3  0  0  0  0  0  0
  132.2940  156.9410  153.4900 C   0  0  0  0  0  0  0  0  0  0  0  0
  131.7120  155.6680  153.4560 C   0  0  0  0  0  3  0  0  0  0  0  0
  132.0540  154.7320  152.4650 C   0  0  0  0  0  0  0  0  0  0  0  0
  132.5140  154.3590  149.2580 C   0  0  0  0  0  1  0  0  0  0  0  0
  133.2380  154.1790  150.4690 O   0  0  0  0  0  0  0  0  0  0  0  0
  131.3530  153.5570  152.5730 O   0  0  0  0  0  0  0  0  0  0  0  0
  130.5730  153.3820  153.7510 C   0  0  0  0  0  1  0  0  0  0  0  0
  134.5050  160.5320  155.5000 C   0  0  0  0  0  2  0  0  0  0  0  0
  135.4140  160.2550  154.3080 C   0  0  0  0  0  2  0  0  0  0  0  0
  135.0620  161.1250  153.2290 O   0  0  0  0  0  0  0  0  0  0  0  0
  134.9300  160.5300  151.9980 C   0  0  0  0  0  0  0  0  0  0  0  0
  133.7930  160.5820  151.1960 C   0  0  0  0  0  3  0  0  0  0  0  0
  133.7650  159.9330  149.9540 C   0  0  0  0  0  3  0  0  0  0  0  0
  134.8690  159.2120  149.4740 C   0  0  0  0  0  0  0  0  0  0  0  0
  136.0130  159.1780  150.2940 C   0  0  0  0  0  3  0  0  0  0  0  0
  136.0380  159.8270  151.5360 C   0  0  0  0  0  3  0  0  0  0  0  0
  134.8450  158.4930  148.1120 C   0  0  0  0  0  0  0  0  0  0  0  0
  135.1780  156.9860  148.2110 C   0  0  0  0  0  1  0  0  0  0  0  0
  133.4420  158.6150  147.4800 C   0  0  0  0  0  1  0  0  0  0  0  0
  135.8790  159.1210  147.1550 C   0  0  0  0  0  1  0  0  0  0  0  0
  1  2  1  0  0  0  0
  2  3  2  0  0  0  0
  4  1  1  0  0  0  0
  5  1  1  0  0  0  0
  6  7  2  0  0  0  0
  6 11  1  0  0  0  0
  7  8  1  0  0  0  0
  8  9  2  0  0  0  0
  9  5  1  0  0  0  0
 10  9  1  0  0  0  0
 11 14  1  0  0  0  0
 11 10  2  0  0  0  0
 12 13  1  0  0  0  0
 13  6  1  0  0  0  0
 14 15  1  0  0  0  0
 16  2  1  0  0  0  0
 17 16  1  0  0  0  0
 18 17  1  0  0  0  0
 19 18  1  0  0  0  0
 20 19  2  0  0  0  0
 21 20  1  0  0  0  0
 22 21  2  0  0  0  0
 22 23  1  0  0  0  0
 23 24  2  0  0  0  0
 24 19  1  0  0  0  0
 25 26  1  0  0  0  0
 25 22  1  0  0  0  0
 27 25  1  0  0  0  0
 28 25  1  0  0  0  0
M  END
>  <MODEL>
7

>  <REMARK>
 VINA RESULT:    -5.091     20.492     22.414
 INTER + INTRA:          -9.131
 INTER:                  -6.729
 INTRA:                  -2.403
 UNBOUND:                -1.362
  Name = CHEMBL4586551
  14 active torsions:
  status: ('A' for Active; 'I' for Inactive)
    1  A    between atoms: C_1  and  O_2
    2  A    between atoms: O_2  and  C_3
    3  A    between atoms: C_6  and  C_7
    4  A    between atoms: C_7  and  N_8
    5  A    between atoms: C_9  and  C_11
    6  A    between atoms: C_11  and  C_12
    7  A    between atoms: C_12  and  O_13
    8  A    between atoms: O_13  and  C_14
    9  A    between atoms: C_17  and  C_18
   10  A    between atoms: C_18  and  C_19
   11  A    between atoms: C_18  and  C_20
   12  A    between atoms: C_18  and  C_21
   13  A    between atoms: C_25  and  O_26
   14  A    between atoms: O_26  and  C_27
                            x       y       z     vdW  Elec       q    Type
                         _______ _______ _______ _____ _____    ______ ____

>  <TORSDO>
F 9

>  <SCORE>
-5.091

>  <RMSD_LB>
20.492

>  <RMSD_UB>
22.414

$$$$
CHEMBL4586551
 OpenBabel10162523403D

 28 29  0  0  0  0  0  0  0  0999 V2000
  136.4220  136.9980  145.4980 N   0  0  0  0  0  0  0  0  0  0  0  0
  135.7940  135.7750  145.6050 C   0  0  0  0  0  0  0  0  0  0  0  0
  134.6250  135.6500  145.9490 O   0  0  0  0  0  0  0  0  0  0  0  0
  137.3830  137.0340  145.2900 H   0  0  0  0  0  0  0  0  0  0  0  0
  135.6860  138.2270  145.6870 C   0  0  0  0  0  2  0  0  0  0  0  0
  136.1950  140.9560  142.3540 C   0  0  0  0  0  0  0  0  0  0  0  0
  137.2320  140.7280  143.2690 C   0  0  0  0  0  3  0  0  0  0  0  0
  137.0720  139.8330  144.3320 C   0  0  0  0  0  3  0  0  0  0  0  0
  135.8620  139.1630  144.5220 C   0  0  0  0  0  0  0  0  0  0  0  0
  134.8260  139.3880  143.6080 C   0  0  0  0  0  3  0  0  0  0  0  0
  134.9810  140.2710  142.5250 C   0  0  0  0  0  0  0  0  0  0  0  0
  137.4380  142.7200  141.3520 C   0  0  0  0  0  1  0  0  0  0  0  0
  136.2900  141.8790  141.3460 O   0  0  0  0  0  0  0  0  0  0  0  0
  133.8460  140.3880  141.7620 O   0  0  0  0  0  0  0  0  0  0  0  0
  133.5240  139.2890  140.9180 C   0  0  0  0  0  1  0  0  0  0  0  0
  136.6950  134.6050  145.2710 C   0  0  0  0  0  2  0  0  0  0  0  0
  138.0860  134.8130  145.8580 C   0  0  0  0  0  2  0  0  0  0  0  0
  138.1440  134.2290  147.1630 O   0  0  0  0  0  0  0  0  0  0  0  0
  138.4600  135.0860  148.1890 C   0  0  0  0  0  0  0  0  0  0  0  0
  137.5570  135.6020  149.1130 C   0  0  0  0  0  3  0  0  0  0  0  0
  137.9880  136.4750  150.1220 C   0  0  0  0  0  3  0  0  0  0  0  0
  139.3320  136.8580  150.2400 C   0  0  0  0  0  0  0  0  0  0  0  0
  140.2320  136.3190  149.3030 C   0  0  0  0  0  3  0  0  0  0  0  0
  139.7990  135.4480  148.2940 C   0  0  0  0  0  3  0  0  0  0  0  0
  139.8120  137.8200  151.3430 C   0  0  0  0  0  0  0  0  0  0  0  0
  138.9100  137.8090  152.6000 C   0  0  0  0  0  1  0  0  0  0  0  0
  141.2360  137.4300  151.7950 C   0  0  0  0  0  1  0  0  0  0  0  0
  139.8360  139.2710  150.8180 C   0  0  0  0  0  1  0  0  0  0  0  0
  1  2  1  0  0  0  0
  1  5  1  0  0  0  0
  2  3  2  0  0  0  0
  4  1  1  0  0  0  0
  6 11  2  0  0  0  0
  6  7  1  0  0  0  0
  7  8  2  0  0  0  0
  8  9  1  0  0  0  0
  9  5  1  0  0  0  0
 10  9  2  0  0  0  0
 11 10  1  0  0  0  0
 13 12  1  0  0  0  0
 13  6  1  0  0  0  0
 14 11  1  0  0  0  0
 15 14  1  0  0  0  0
 16  2  1  0  0  0  0
 16 17  1  0  0  0  0
 17 18  1  0  0  0  0
 18 19  1  0  0  0  0
 19 24  2  0  0  0  0
 19 20  1  0  0  0  0
 20 21  2  0  0  0  0
 21 22  1  0  0  0  0
 22 25  1  0  0  0  0
 23 22  2  0  0  0  0
 24 23  1  0  0  0  0
 25 27  1  0  0  0  0
 25 26  1  0  0  0  0
 28 25  1  0  0  0  0
M  END
>  <MODEL>
8

>  <REMARK>
 VINA RESULT:    -5.047      7.002      9.940
 INTER + INTRA:          -9.065
 INTER:                  -7.944
 INTRA:                  -1.122
 UNBOUND:                -1.362
  Name = CHEMBL4586551
  14 active torsions:
  status: ('A' for Active; 'I' for Inactive)
    1  A    between atoms: C_1  and  O_2
    2  A    between atoms: O_2  and  C_3
    3  A    between atoms: C_6  and  C_7
    4  A    between atoms: C_7  and  N_8
    5  A    between atoms: C_9  and  C_11
    6  A    between atoms: C_11  and  C_12
    7  A    between atoms: C_12  and  O_13
    8  A    between atoms: O_13  and  C_14
    9  A    between atoms: C_17  and  C_18
   10  A    between atoms: C_18  and  C_19
   11  A    between atoms: C_18  and  C_20
   12  A    between atoms: C_18  and  C_21
   13  A    between atoms: C_25  and  O_26
   14  A    between atoms: O_26  and  C_27
                            x       y       z     vdW  Elec       q    Type
                         _______ _______ _______ _____ _____    ______ ____

>  <TORSDO>
F 9

>  <SCORE>
-5.047

>  <RMSD_LB>
7.002

>  <RMSD_UB>
9.940

$$$$
CHEMBL4586551
 OpenBabel10162523403D

 28 29  0  0  0  0  0  0  0  0999 V2000
  136.4510  160.7490  151.4950 N   0  0  0  0  0  0  0  0  0  0  0  0
  137.1660  160.7120  152.6730 C   0  0  0  0  0  0  0  0  0  0  0  0
  137.5000  159.6690  153.2220 O   0  0  0  0  0  0  0  0  0  0  0  0
  136.1460  161.6150  151.1390 H   0  0  0  0  0  0  0  0  0  0  0  0
  136.1450  159.5340  150.7750 C   0  0  0  0  0  2  0  0  0  0  0  0
  136.5310  160.1010  146.4920 C   0  0  0  0  0  0  0  0  0  0  0  0
  137.1270  160.9900  147.3970 C   0  0  0  0  0  3  0  0  0  0  0  0
  137.0180  160.7950  148.7780 C   0  0  0  0  0  3  0  0  0  0  0  0
  136.2870  159.7200  149.2880 C   0  0  0  0  0  0  0  0  0  0  0  0
  135.6930  158.8290  148.3860 C   0  0  0  0  0  3  0  0  0  0  0  0
  135.8120  159.0050  146.9960 C   0  0  0  0  0  0  0  0  0  0  0  0
  136.4800  161.6500  144.6870 C   0  0  0  0  0  1  0  0  0  0  0  0
  136.5540  160.3020  145.1370 O   0  0  0  0  0  0  0  0  0  0  0  0
  135.1310  158.0560  146.2760 O   0  0  0  0  0  0  0  0  0  0  0  0
  135.6370  156.7270  146.3280 C   0  0  0  0  0  1  0  0  0  0  0  0
  137.4830  162.0850  153.2280 C   0  0  0  0  0  2  0  0  0  0  0  0
  138.6500  162.7120  152.4760 C   0  0  0  0  0  2  0  0  0  0  0  0
  139.1140  161.8030  151.4730 O   0  0  0  0  0  0  0  0  0  0  0  0
  140.4260  161.9470  151.0940 C   0  0  0  0  0  0  0  0  0  0  0  0
  141.4610  161.0800  151.4310 C   0  0  0  0  0  3  0  0  0  0  0  0
  142.7700  161.3260  150.9910 C   0  0  0  0  0  3  0  0  0  0  0  0
  143.0850  162.4420  150.2020 C   0  0  0  0  0  0  0  0  0  0  0  0
  142.0240  163.3020  149.8630 C   0  0  0  0  0  3  0  0  0  0  0  0
  140.7170  163.0560  150.3050 C   0  0  0  0  0  3  0  0  0  0  0  0
  144.5200  162.7200  149.7190 C   0  0  0  0  0  0  0  0  0  0  0  0
  144.8250  162.1170  148.3270 C   0  0  0  0  0  1  0  0  0  0  0  0
  144.7550  164.2430  149.6230 C   0  0  0  0  0  1  0  0  0  0  0  0
  145.5450  162.1190  150.7040 C   0  0  0  0  0  1  0  0  0  0  0  0
  1  2  1  0  0  0  0
  2  3  2  0  0  0  0
  2 16  1  0  0  0  0
  4  1  1  0  0  0  0
  5  1  1  0  0  0  0
  6 11  2  0  0  0  0
  6  7  1  0  0  0  0
  7  8  2  0  0  0  0
  8  9  1  0  0  0  0
  9  5  1  0  0  0  0
 10  9  2  0  0  0  0
 11 10  1  0  0  0  0
 12 13  1  0  0  0  0
 13  6  1  0  0  0  0
 14 15  1  0  0  0  0
 14 11  1  0  0  0  0
 17 16  1  0  0  0  0
 18 17  1  0  0  0  0
 19 20  1  0  0  0  0
 19 18  1  0  0  0  0
 21 20  2  0  0  0  0
 22 21  1  0  0  0  0
 23 22  2  0  0  0  0
 23 24  1  0  0  0  0
 24 19  2  0  0  0  0
 25 22  1  0  0  0  0
 25 28  1  0  0  0  0
 26 25  1  0  0  0  0
 27 25  1  0  0  0  0
M  END
>  <MODEL>
9

>  <REMARK>
 VINA RESULT:    -5.023     21.475     23.749
 INTER + INTRA:          -9.029
 INTER:                  -7.666
 INTRA:                  -1.362
 UNBOUND:                -1.362
  Name = CHEMBL4586551
  14 active torsions:
  status: ('A' for Active; 'I' for Inactive)
    1  A    between atoms: C_1  and  O_2
    2  A    between atoms: O_2  and  C_3
    3  A    between atoms: C_6  and  C_7
    4  A    between atoms: C_7  and  N_8
    5  A    between atoms: C_9  and  C_11
    6  A    between atoms: C_11  and  C_12
    7  A    between atoms: C_12  and  O_13
    8  A    between atoms: O_13  and  C_14
    9  A    between atoms: C_17  and  C_18
   10  A    between atoms: C_18  and  C_19
   11  A    between atoms: C_18  and  C_20
   12  A    between atoms: C_18  and  C_21
   13  A    between atoms: C_25  and  O_26
   14  A    between atoms: O_26  and  C_27
                            x       y       z     vdW  Elec       q    Type
                         _______ _______ _______ _____ _____    ______ ____

>  <TORSDO>
F 9

>  <SCORE>
-5.023

>  <RMSD_LB>
21.475

>  <RMSD_UB>
23.749

$$$$
