CHEMBL1885454
 OpenBabel10172500203D

 34 37  0  0  0  0  0  0  0  0999 V2000
  144.0480  139.5760  154.6200 C   0  0  0  0  0  0  0  0  0  0  0  0
  143.3570  140.0100  155.7340 C   0  0  0  0  0  3  0  0  0  0  0  0
  142.0560  139.6340  155.6810 O   0  0  0  0  0  0  0  0  0  0  0  0
  141.8780  138.9420  154.5180 C   0  0  0  0  0  0  0  0  0  0  0  0
  140.6780  138.3800  154.0650 C   0  0  0  0  0  0  0  0  0  0  0  0
  140.7310  137.7160  152.8270 C   0  0  0  0  0  3  0  0  0  0  0  0
  141.9220  137.6130  152.1040 C   0  0  0  0  0  3  0  0  0  0  0  0
  143.1050  138.1760  152.5950 C   0  0  0  0  0  3  0  0  0  0  0  0
  143.0860  138.8720  153.8220 C   0  0  0  0  0  0  0  0  0  0  0  0
  147.2110  141.2160  153.3650 C   0  0  0  0  0  0  0  0  0  0  0  0
  145.8570  140.9490  153.6000 C   0  0  0  0  0  3  0  0  0  0  0  0
  145.4600  139.8600  154.3960 C   0  0  0  0  0  0  0  0  0  0  0  0
  146.4460  139.0410  154.9600 C   0  0  0  0  0  3  0  0  0  0  0  0
  147.8000  139.3050  154.7480 C   0  0  0  0  0  3  0  0  0  0  0  0
  148.1740  140.3850  153.9520 C   0  0  0  0  0  0  0  0  0  0  0  0
  147.7290  142.0480  151.1880 C   0  0  0  0  0  1  0  0  0  0  0  0
  147.6870  142.2440  152.5940 O   0  0  0  0  0  0  0  0  0  0  0  0
  149.5020  140.6380  153.7320 O   0  0  0  0  0  0  0  0  0  0  0  0
  149.8000  141.5210  153.6360 H   0  0  0  0  0  0  0  0  0  0  0  0
  139.3950  138.4590  154.8090 C   0  0  0  0  0  0  0  0  0  0  0  0
  138.6890  139.4570  154.6970 O   0  0  0  0  0  0  0  0  0  0  0  0
  139.0630  137.3890  155.6050 N   0  0  0  0  0  0  0  0  0  0  0  0
  139.6670  136.6110  155.6240 H   0  0  0  0  0  0  0  0  0  0  0  0
  137.8690  137.3520  156.4150 C   0  0  0  0  0  2  0  0  0  0  0  0
  136.7810  136.5480  155.7510 C   0  0  0  0  0  0  0  0  0  0  0  0
  136.7030  136.4780  154.3600 C   0  0  0  0  0  3  0  0  0  0  0  0
  135.6810  135.7510  153.7400 C   0  0  0  0  0  3  0  0  0  0  0  0
  134.7170  135.0640  154.4930 C   0  0  0  0  0  0  0  0  0  0  0  0
  134.8000  135.1110  155.8980 C   0  0  0  0  0  0  0  0  0  0  0  0
  135.8340  135.8460  156.5070 C   0  0  0  0  0  3  0  0  0  0  0  0
  133.7000  134.3460  153.9240 O   0  0  0  0  0  0  0  0  0  0  0  0
  133.5530  134.3790  152.5110 C   0  0  0  0  0  1  0  0  0  0  0  0
  133.9790  134.5180  156.8250 O   0  0  0  0  0  0  0  0  0  0  0  0
  134.1780  134.8020  158.2010 C   0  0  0  0  0  1  0  0  0  0  0  0
  1  2  2  0  0  0  0
  3  2  1  0  0  0  0
  4  3  1  0  0  0  0
  5  4  1  0  0  0  0
  5 20  1  0  0  0  0
  6  5  2  0  0  0  0
  7  8  2  0  0  0  0
  7  6  1  0  0  0  0
  8  9  1  0  0  0  0
  9  4  2  0  0  0  0
  9  1  1  0  0  0  0
 10 11  2  0  0  0  0
 10 15  1  0  0  0  0
 11 12  1  0  0  0  0
 12  1  1  0  0  0  0
 12 13  2  0  0  0  0
 14 13  1  0  0  0  0
 15 14  2  0  0  0  0
 16 17  1  0  0  0  0
 17 10  1  0  0  0  0
 18 15  1  0  0  0  0
 19 18  1  0  0  0  0
 20 22  1  0  0  0  0
 21 20  2  0  0  0  0
 22 23  1  0  0  0  0
 22 24  1  0  0  0  0
 25 24  1  0  0  0  0
 25 30  1  0  0  0  0
 26 25  2  0  0  0  0
 27 26  1  0  0  0  0
 27 28  2  0  0  0  0
 28 29  1  0  0  0  0
 29 30  2  0  0  0  0
 29 33  1  0  0  0  0
 31 28  1  0  0  0  0
 32 31  1  0  0  0  0
 33 34  1  0  0  0  0
M  END
>  <MODEL>
1

>  <REMARK>
 VINA RESULT:    -9.304      0.000      0.000
 INTER + INTRA:         -14.492
 INTER:                 -13.583
 INTRA:                  -0.909
 UNBOUND:                -1.109
  Name = CHEMBL1885454
  11 active torsions:
  status: ('A' for Active; 'I' for Inactive)
    1  A    between atoms: C_1  and  O_2
    2  A    between atoms: O_2  and  C_3
    3  A    between atoms: C_5  and  C_6
    4  A    between atoms: C_10  and  C_11
    5  A    between atoms: N_13  and  C_14
    6  A    between atoms: C_14  and  C_15
    7  A    between atoms: C_18  and  O_19
    8  A    between atoms: O_19  and  C_20
    9  A    between atoms: C_21  and  O_22
   10  A    between atoms: O_22  and  C_23
   11  A    between atoms: C_31  and  O_32
                            x       y       z     vdW  Elec       q    Type
                         _______ _______ _______ _____ _____    ______ ____

>  <TORSDO>
F 8

>  <SCORE>
-9.304

>  <RMSD_LB>
0.000

>  <RMSD_UB>
0.000

$$$$
CHEMBL1885454
 OpenBabel10172500203D

 34 37  0  0  0  0  0  0  0  0999 V2000
  135.3420  135.4500  151.2920 C   0  0  0  0  0  0  0  0  0  0  0  0
  136.2210  136.5070  151.1680 C   0  0  0  0  0  3  0  0  0  0  0  0
  136.6470  136.9350  152.3810 O   0  0  0  0  0  0  0  0  0  0  0  0
  136.0450  136.1540  153.3240 C   0  0  0  0  0  0  0  0  0  0  0  0
  136.2030  136.2600  154.7110 C   0  0  0  0  0  0  0  0  0  0  0  0
  135.4720  135.3480  155.4920 C   0  0  0  0  0  3  0  0  0  0  0  0
  134.6500  134.3810  154.9090 C   0  0  0  0  0  3  0  0  0  0  0  0
  134.5280  134.2950  153.5170 C   0  0  0  0  0  3  0  0  0  0  0  0
  135.2260  135.2100  152.7010 C   0  0  0  0  0  0  0  0  0  0  0  0
  133.4460  134.9580  148.0610 C   0  0  0  0  0  0  0  0  0  0  0  0
  134.0780  135.5710  149.1490 C   0  0  0  0  0  3  0  0  0  0  0  0
  134.7020  134.8060  150.1500 C   0  0  0  0  0  0  0  0  0  0  0  0
  134.6870  133.4090  150.0420 C   0  0  0  0  0  3  0  0  0  0  0  0
  134.0750  132.7860  148.9530 C   0  0  0  0  0  3  0  0  0  0  0  0
  133.4570  133.5600  147.9740 C   0  0  0  0  0  0  0  0  0  0  0  0
  132.5390  137.0060  147.2350 C   0  0  0  0  0  1  0  0  0  0  0  0
  132.8040  135.6230  147.0490 O   0  0  0  0  0  0  0  0  0  0  0  0
  132.8440  132.9500  146.9130 O   0  0  0  0  0  0  0  0  0  0  0  0
  132.5440  133.4620  146.1870 H   0  0  0  0  0  0  0  0  0  0  0  0
  137.0740  137.2680  155.3690 C   0  0  0  0  0  0  0  0  0  0  0  0
  136.5730  138.1200  156.0970 O   0  0  0  0  0  0  0  0  0  0  0  0
  138.4230  137.1920  155.1170 N   0  0  0  0  0  0  0  0  0  0  0  0
  138.7550  136.4630  154.5430 H   0  0  0  0  0  0  0  0  0  0  0  0
  139.3770  138.1310  155.6550 C   0  0  0  0  0  2  0  0  0  0  0  0
  140.5390  138.3310  154.7180 C   0  0  0  0  0  0  0  0  0  0  0  0
  141.6620  139.0520  155.1280 C   0  0  0  0  0  3  0  0  0  0  0  0
  142.7330  139.2590  154.2530 C   0  0  0  0  0  3  0  0  0  0  0  0
  142.7180  138.7410  152.9490 C   0  0  0  0  0  0  0  0  0  0  0  0
  141.6000  137.9930  152.5330 C   0  0  0  0  0  0  0  0  0  0  0  0
  140.5300  137.7940  153.4250 C   0  0  0  0  0  3  0  0  0  0  0  0
  143.7450  138.9250  152.0620 O   0  0  0  0  0  0  0  0  0  0  0  0
  143.7300  140.0820  151.2360 C   0  0  0  0  0  1  0  0  0  0  0  0
  141.3730  137.3950  151.3190 O   0  0  0  0  0  0  0  0  0  0  0  0
  140.2540  137.8060  150.5490 C   0  0  0  0  0  1  0  0  0  0  0  0
  1  9  1  0  0  0  0
  2  1  2  0  0  0  0
  2  3  1  0  0  0  0
  3  4  1  0  0  0  0
  4  5  1  0  0  0  0
  5 20  1  0  0  0  0
  5  6  2  0  0  0  0
  7  6  1  0  0  0  0
  8  7  2  0  0  0  0
  9  4  2  0  0  0  0
  9  8  1  0  0  0  0
 10 11  1  0  0  0  0
 11 12  2  0  0  0  0
 12  1  1  0  0  0  0
 13 12  1  0  0  0  0
 14 13  2  0  0  0  0
 15 10  2  0  0  0  0
 15 14  1  0  0  0  0
 17 16  1  0  0  0  0
 17 10  1  0  0  0  0
 18 15  1  0  0  0  0
 19 18  1  0  0  0  0
 20 21  2  0  0  0  0
 22 20  1  0  0  0  0
 22 24  1  0  0  0  0
 23 22  1  0  0  0  0
 25 26  1  0  0  0  0
 25 24  1  0  0  0  0
 27 26  2  0  0  0  0
 28 27  1  0  0  0  0
 29 28  2  0  0  0  0
 29 30  1  0  0  0  0
 30 25  2  0  0  0  0
 31 28  1  0  0  0  0
 32 31  1  0  0  0  0
 33 29  1  0  0  0  0
 34 33  1  0  0  0  0
M  END
>  <MODEL>
2

>  <REMARK>
 VINA RESULT:    -9.033      3.166     10.705
 INTER + INTRA:         -14.103
 INTER:                 -12.827
 INTRA:                  -1.276
 UNBOUND:                -1.109
  Name = CHEMBL1885454
  11 active torsions:
  status: ('A' for Active; 'I' for Inactive)
    1  A    between atoms: C_1  and  O_2
    2  A    between atoms: O_2  and  C_3
    3  A    between atoms: C_5  and  C_6
    4  A    between atoms: C_10  and  C_11
    5  A    between atoms: N_13  and  C_14
    6  A    between atoms: C_14  and  C_15
    7  A    between atoms: C_18  and  O_19
    8  A    between atoms: O_19  and  C_20
    9  A    between atoms: C_21  and  O_22
   10  A    between atoms: O_22  and  C_23
   11  A    between atoms: C_31  and  O_32
                            x       y       z     vdW  Elec       q    Type
                         _______ _______ _______ _____ _____    ______ ____

>  <TORSDO>
F 8

>  <SCORE>
-9.033

>  <RMSD_LB>
3.166

>  <RMSD_UB>
10.705

$$$$
CHEMBL1885454
 OpenBabel10172500203D

 34 37  0  0  0  0  0  0  0  0999 V2000
  138.5220  137.4920  153.9320 C   0  0  0  0  0  0  0  0  0  0  0  0
  137.7640  137.4490  152.7790 C   0  0  0  0  0  3  0  0  0  0  0  0
  136.5730  136.8400  152.9970 O   0  0  0  0  0  0  0  0  0  0  0  0
  136.5370  136.4720  154.3100 C   0  0  0  0  0  0  0  0  0  0  0  0
  135.4880  135.8070  154.9550 C   0  0  0  0  0  0  0  0  0  0  0  0
  135.6770  135.5220  156.3190 C   0  0  0  0  0  3  0  0  0  0  0  0
  136.8420  135.9000  156.9900 C   0  0  0  0  0  3  0  0  0  0  0  0
  137.8650  136.5770  156.3150 C   0  0  0  0  0  3  0  0  0  0  0  0
  137.7220  136.8580  154.9400 C   0  0  0  0  0  0  0  0  0  0  0  0
  141.9140  138.7630  152.8610 C   0  0  0  0  0  0  0  0  0  0  0  0
  140.6210  138.2310  152.8140 C   0  0  0  0  0  3  0  0  0  0  0  0
  139.8610  138.0660  153.9860 C   0  0  0  0  0  0  0  0  0  0  0  0
  140.4190  138.4490  155.2120 C   0  0  0  0  0  3  0  0  0  0  0  0
  141.7010  138.9970  155.2720 C   0  0  0  0  0  3  0  0  0  0  0  0
  142.4410  139.1470  154.1010 C   0  0  0  0  0  0  0  0  0  0  0  0
  142.2520  139.7820  150.7290 C   0  0  0  0  0  1  0  0  0  0  0  0
  142.7280  138.9470  151.7740 O   0  0  0  0  0  0  0  0  0  0  0  0
  143.7040  139.6720  154.1590 O   0  0  0  0  0  0  0  0  0  0  0  0
  144.0730  140.0880  153.4050 H   0  0  0  0  0  0  0  0  0  0  0  0
  134.2290  135.3970  154.2800 C   0  0  0  0  0  0  0  0  0  0  0  0
  133.2120  135.2250  154.9450 O   0  0  0  0  0  0  0  0  0  0  0  0
  134.2760  135.2230  152.9170 N   0  0  0  0  0  0  0  0  0  0  0  0
  135.1220  135.4050  152.4480 H   0  0  0  0  0  0  0  0  0  0  0  0
  133.1400  134.7860  152.1420 C   0  0  0  0  0  2  0  0  0  0  0  0
  133.5360  134.4530  150.7280 C   0  0  0  0  0  0  0  0  0  0  0  0
  133.8700  133.1440  150.3770 C   0  0  0  0  0  3  0  0  0  0  0  0
  134.2590  132.8350  149.0690 C   0  0  0  0  0  3  0  0  0  0  0  0
  134.3140  133.8230  148.0730 C   0  0  0  0  0  0  0  0  0  0  0  0
  133.9580  135.1420  148.4120 C   0  0  0  0  0  0  0  0  0  0  0  0
  133.5680  135.4370  149.7320 C   0  0  0  0  0  3  0  0  0  0  0  0
  134.6940  133.5610  146.7850 O   0  0  0  0  0  0  0  0  0  0  0  0
  135.9550  132.9440  146.5600 C   0  0  0  0  0  1  0  0  0  0  0  0
  133.9330  136.2560  147.6100 O   0  0  0  0  0  0  0  0  0  0  0  0
  132.7000  136.9250  147.4010 C   0  0  0  0  0  1  0  0  0  0  0  0
  1 12  1  0  0  0  0
  1  9  1  0  0  0  0
  2  3  1  0  0  0  0
  2  1  2  0  0  0  0
  3  4  1  0  0  0  0
  4  9  2  0  0  0  0
  4  5  1  0  0  0  0
  5  6  2  0  0  0  0
  6  7  1  0  0  0  0
  8  7  2  0  0  0  0
  9  8  1  0  0  0  0
 10 15  1  0  0  0  0
 11 10  2  0  0  0  0
 11 12  1  0  0  0  0
 12 13  2  0  0  0  0
 13 14  1  0  0  0  0
 15 18  1  0  0  0  0
 15 14  2  0  0  0  0
 16 17  1  0  0  0  0
 17 10  1  0  0  0  0
 19 18  1  0  0  0  0
 20 21  2  0  0  0  0
 20  5  1  0  0  0  0
 22 20  1  0  0  0  0
 23 22  1  0  0  0  0
 24 22  1  0  0  0  0
 25 24  1  0  0  0  0
 26 25  1  0  0  0  0
 27 26  2  0  0  0  0
 28 29  2  0  0  0  0
 28 27  1  0  0  0  0
 29 30  1  0  0  0  0
 30 25  2  0  0  0  0
 31 28  1  0  0  0  0
 32 31  1  0  0  0  0
 33 29  1  0  0  0  0
 34 33  1  0  0  0  0
M  END
>  <MODEL>
3

>  <REMARK>
 VINA RESULT:    -8.956      3.264      6.662
 INTER + INTRA:         -13.992
 INTER:                 -12.959
 INTRA:                  -1.033
 UNBOUND:                -1.109
  Name = CHEMBL1885454
  11 active torsions:
  status: ('A' for Active; 'I' for Inactive)
    1  A    between atoms: C_1  and  O_2
    2  A    between atoms: O_2  and  C_3
    3  A    between atoms: C_5  and  C_6
    4  A    between atoms: C_10  and  C_11
    5  A    between atoms: N_13  and  C_14
    6  A    between atoms: C_14  and  C_15
    7  A    between atoms: C_18  and  O_19
    8  A    between atoms: O_19  and  C_20
    9  A    between atoms: C_21  and  O_22
   10  A    between atoms: O_22  and  C_23
   11  A    between atoms: C_31  and  O_32
                            x       y       z     vdW  Elec       q    Type
                         _______ _______ _______ _____ _____    ______ ____

>  <TORSDO>
F 8

>  <SCORE>
-8.956

>  <RMSD_LB>
3.264

>  <RMSD_UB>
6.662

$$$$
CHEMBL1885454
 OpenBabel10172500203D

 34 37  0  0  0  0  0  0  0  0999 V2000
  135.5120  135.2140  150.6760 C   0  0  0  0  0  0  0  0  0  0  0  0
  136.5770  136.0840  150.5520 C   0  0  0  0  0  3  0  0  0  0  0  0
  136.9940  136.5250  151.7630 O   0  0  0  0  0  0  0  0  0  0  0  0
  136.1970  135.9430  152.7060 C   0  0  0  0  0  0  0  0  0  0  0  0
  136.2800  136.1310  154.0910 C   0  0  0  0  0  0  0  0  0  0  0  0
  135.3430  135.4310  154.8710 C   0  0  0  0  0  3  0  0  0  0  0  0
  134.3970  134.5830  154.2910 C   0  0  0  0  0  3  0  0  0  0  0  0
  134.3530  134.4080  152.9020 C   0  0  0  0  0  3  0  0  0  0  0  0
  135.2610  135.1140  152.0850 C   0  0  0  0  0  0  0  0  0  0  0  0
  134.0210  134.7430  147.2370 C   0  0  0  0  0  0  0  0  0  0  0  0
  134.6810  135.3160  148.3310 C   0  0  0  0  0  3  0  0  0  0  0  0
  134.8410  134.6050  149.5340 C   0  0  0  0  0  0  0  0  0  0  0  0
  134.3320  133.3030  149.6220 C   0  0  0  0  0  3  0  0  0  0  0  0
  133.6870  132.7140  148.5340 C   0  0  0  0  0  3  0  0  0  0  0  0
  133.5320  133.4360  147.3520 C   0  0  0  0  0  0  0  0  0  0  0  0
  134.9230  135.5240  145.1690 C   0  0  0  0  0  1  0  0  0  0  0  0
  133.8080  135.3660  146.0350 O   0  0  0  0  0  0  0  0  0  0  0  0
  132.8880  132.8650  146.2880 O   0  0  0  0  0  0  0  0  0  0  0  0
  131.9710  133.0120  146.1620 H   0  0  0  0  0  0  0  0  0  0  0  0
  137.2770  137.0160  154.7470 C   0  0  0  0  0  0  0  0  0  0  0  0
  137.4850  136.9070  155.9510 O   0  0  0  0  0  0  0  0  0  0  0  0
  137.9220  137.9330  153.9510 N   0  0  0  0  0  0  0  0  0  0  0  0
  137.7230  137.9430  152.9870 H   0  0  0  0  0  0  0  0  0  0  0  0
  138.8810  138.8810  154.4650 C   0  0  0  0  0  2  0  0  0  0  0  0
  140.2670  138.5950  153.9480 C   0  0  0  0  0  0  0  0  0  0  0  0
  140.4470  137.8510  152.7820 C   0  0  0  0  0  3  0  0  0  0  0  0
  141.7320  137.5650  152.3110 C   0  0  0  0  0  3  0  0  0  0  0  0
  142.8740  138.0230  152.9860 C   0  0  0  0  0  0  0  0  0  0  0  0
  142.7020  138.7930  154.1520 C   0  0  0  0  0  0  0  0  0  0  0  0
  141.4030  139.0730  154.6140 C   0  0  0  0  0  3  0  0  0  0  0  0
  144.1470  137.7600  152.5600 O   0  0  0  0  0  0  0  0  0  0  0  0
  144.3730  137.5700  151.1690 C   0  0  0  0  0  1  0  0  0  0  0  0
  143.6630  139.3440  154.9640 O   0  0  0  0  0  0  0  0  0  0  0  0
  143.2580  140.0800  156.1070 C   0  0  0  0  0  1  0  0  0  0  0  0
  1  9  1  0  0  0  0
  2  1  2  0  0  0  0
  2  3  1  0  0  0  0
  3  4  1  0  0  0  0
  4  5  1  0  0  0  0
  5 20  1  0  0  0  0
  5  6  2  0  0  0  0
  7  6  1  0  0  0  0
  8  7  2  0  0  0  0
  9  4  2  0  0  0  0
  9  8  1  0  0  0  0
 10 15  2  0  0  0  0
 10 11  1  0  0  0  0
 11 12  2  0  0  0  0
 12 13  1  0  0  0  0
 12  1  1  0  0  0  0
 14 13  2  0  0  0  0
 15 14  1  0  0  0  0
 16 17  1  0  0  0  0
 17 10  1  0  0  0  0
 18 15  1  0  0  0  0
 19 18  1  0  0  0  0
 20 21  2  0  0  0  0
 22 24  1  0  0  0  0
 22 20  1  0  0  0  0
 23 22  1  0  0  0  0
 25 24  1  0  0  0  0
 25 30  1  0  0  0  0
 26 25  2  0  0  0  0
 27 26  1  0  0  0  0
 27 28  2  0  0  0  0
 28 29  1  0  0  0  0
 29 30  2  0  0  0  0
 29 33  1  0  0  0  0
 31 28  1  0  0  0  0
 32 31  1  0  0  0  0
 33 34  1  0  0  0  0
M  END
>  <MODEL>
4

>  <REMARK>
 VINA RESULT:    -8.750      3.461     10.760
 INTER + INTRA:         -13.695
 INTER:                 -12.567
 INTRA:                  -1.128
 UNBOUND:                -1.109
  Name = CHEMBL1885454
  11 active torsions:
  status: ('A' for Active; 'I' for Inactive)
    1  A    between atoms: C_1  and  O_2
    2  A    between atoms: O_2  and  C_3
    3  A    between atoms: C_5  and  C_6
    4  A    between atoms: C_10  and  C_11
    5  A    between atoms: N_13  and  C_14
    6  A    between atoms: C_14  and  C_15
    7  A    between atoms: C_18  and  O_19
    8  A    between atoms: O_19  and  C_20
    9  A    between atoms: C_21  and  O_22
   10  A    between atoms: O_22  and  C_23
   11  A    between atoms: C_31  and  O_32
                            x       y       z     vdW  Elec       q    Type
                         _______ _______ _______ _____ _____    ______ ____

>  <TORSDO>
F 8

>  <SCORE>
-8.750

>  <RMSD_LB>
3.461

>  <RMSD_UB>
10.760

$$$$
CHEMBL1885454
 OpenBabel10172500203D

 34 37  0  0  0  0  0  0  0  0999 V2000
  143.7900  139.4010  154.5170 C   0  0  0  0  0  0  0  0  0  0  0  0
  143.0130  139.7400  155.6070 C   0  0  0  0  0  3  0  0  0  0  0  0
  141.7170  139.4000  155.4100 O   0  0  0  0  0  0  0  0  0  0  0  0
  141.6290  138.8270  154.1740 C   0  0  0  0  0  0  0  0  0  0  0  0
  140.4640  138.3370  153.5700 C   0  0  0  0  0  0  0  0  0  0  0  0
  140.6130  137.7950  152.2810 C   0  0  0  0  0  3  0  0  0  0  0  0
  141.8590  137.7360  151.6530 C   0  0  0  0  0  3  0  0  0  0  0  0
  143.0040  138.2240  152.2940 C   0  0  0  0  0  3  0  0  0  0  0  0
  142.8900  138.7980  153.5770 C   0  0  0  0  0  0  0  0  0  0  0  0
  147.0760  141.0370  153.6240 C   0  0  0  0  0  0  0  0  0  0  0  0
  145.7030  140.7800  153.7170 C   0  0  0  0  0  3  0  0  0  0  0  0
  145.2200  139.6740  154.4400 C   0  0  0  0  0  0  0  0  0  0  0  0
  146.1390  138.8280  155.0750 C   0  0  0  0  0  3  0  0  0  0  0  0
  147.5090  139.0830  155.0040 C   0  0  0  0  0  3  0  0  0  0  0  0
  147.9700  140.1790  154.2790 C   0  0  0  0  0  0  0  0  0  0  0  0
  147.6980  141.9730  151.5170 C   0  0  0  0  0  1  0  0  0  0  0  0
  147.6350  142.0800  152.9320 O   0  0  0  0  0  0  0  0  0  0  0  0
  149.3140  140.4230  154.1960 O   0  0  0  0  0  0  0  0  0  0  0  0
  149.6320  141.3040  154.2040 H   0  0  0  0  0  0  0  0  0  0  0  0
  139.1230  138.3730  154.2090 C   0  0  0  0  0  0  0  0  0  0  0  0
  138.6520  139.4470  154.5710 O   0  0  0  0  0  0  0  0  0  0  0  0
  138.4720  137.1730  154.3690 N   0  0  0  0  0  0  0  0  0  0  0  0
  138.9020  136.3550  154.0290 H   0  0  0  0  0  0  0  0  0  0  0  0
  137.1850  137.0570  155.0110 C   0  0  0  0  0  2  0  0  0  0  0  0
  136.2080  136.3000  154.1500 C   0  0  0  0  0  0  0  0  0  0  0  0
  135.1710  135.5700  154.7320 C   0  0  0  0  0  3  0  0  0  0  0  0
  134.2750  134.8480  153.9370 C   0  0  0  0  0  3  0  0  0  0  0  0
  134.3820  134.8460  152.5380 C   0  0  0  0  0  0  0  0  0  0  0  0
  135.4120  135.5980  151.9400 C   0  0  0  0  0  0  0  0  0  0  0  0
  136.3050  136.3190  152.7530 C   0  0  0  0  0  3  0  0  0  0  0  0
  133.5280  134.1500  151.7260 O   0  0  0  0  0  0  0  0  0  0  0  0
  132.4400  134.8440  151.1290 C   0  0  0  0  0  1  0  0  0  0  0  0
  135.7020  135.7450  150.6060 O   0  0  0  0  0  0  0  0  0  0  0  0
  136.6110  134.8420  149.9970 C   0  0  0  0  0  1  0  0  0  0  0  0
  1  2  2  0  0  0  0
  3  2  1  0  0  0  0
  4  3  1  0  0  0  0
  5  4  2  0  0  0  0
  5 20  1  0  0  0  0
  6  5  1  0  0  0  0
  7  6  2  0  0  0  0
  7  8  1  0  0  0  0
  8  9  2  0  0  0  0
  9  4  1  0  0  0  0
  9  1  1  0  0  0  0
 10 11  2  0  0  0  0
 10 15  1  0  0  0  0
 11 12  1  0  0  0  0
 12  1  1  0  0  0  0
 12 13  2  0  0  0  0
 14 13  1  0  0  0  0
 15 14  2  0  0  0  0
 16 17  1  0  0  0  0
 17 10  1  0  0  0  0
 18 19  1  0  0  0  0
 18 15  1  0  0  0  0
 20 22  1  0  0  0  0
 20 21  2  0  0  0  0
 22 24  1  0  0  0  0
 23 22  1  0  0  0  0
 25 26  1  0  0  0  0
 25 24  1  0  0  0  0
 27 26  2  0  0  0  0
 28 27  1  0  0  0  0
 29 28  2  0  0  0  0
 29 30  1  0  0  0  0
 30 25  2  0  0  0  0
 31 28  1  0  0  0  0
 32 31  1  0  0  0  0
 33 29  1  0  0  0  0
 34 33  1  0  0  0  0
M  END
>  <MODEL>
5

>  <REMARK>
 VINA RESULT:    -8.703      1.389      2.349
 INTER + INTRA:         -13.628
 INTER:                 -12.633
 INTRA:                  -0.996
 UNBOUND:                -1.109
  Name = CHEMBL1885454
  11 active torsions:
  status: ('A' for Active; 'I' for Inactive)
    1  A    between atoms: C_1  and  O_2
    2  A    between atoms: O_2  and  C_3
    3  A    between atoms: C_5  and  C_6
    4  A    between atoms: C_10  and  C_11
    5  A    between atoms: N_13  and  C_14
    6  A    between atoms: C_14  and  C_15
    7  A    between atoms: C_18  and  O_19
    8  A    between atoms: O_19  and  C_20
    9  A    between atoms: C_21  and  O_22
   10  A    between atoms: O_22  and  C_23
   11  A    between atoms: C_31  and  O_32
                            x       y       z     vdW  Elec       q    Type
                         _______ _______ _______ _____ _____    ______ ____

>  <TORSDO>
F 8

>  <SCORE>
-8.703

>  <RMSD_LB>
1.389

>  <RMSD_UB>
2.349

$$$$
CHEMBL1885454
 OpenBabel10172500203D

 34 37  0  0  0  0  0  0  0  0999 V2000
  136.9800  136.6610  151.9270 C   0  0  0  0  0  0  0  0  0  0  0  0
  136.8640  136.7660  150.5550 C   0  0  0  0  0  3  0  0  0  0  0  0
  135.8970  135.9450  150.0800 O   0  0  0  0  0  0  0  0  0  0  0  0
  135.3620  135.2840  151.1470 C   0  0  0  0  0  0  0  0  0  0  0  0
  134.3360  134.3330  151.1010 C   0  0  0  0  0  0  0  0  0  0  0  0
  133.9500  133.7750  152.3330 C   0  0  0  0  0  3  0  0  0  0  0  0
  134.5500  134.1660  153.5320 C   0  0  0  0  0  3  0  0  0  0  0  0
  135.5640  135.1310  153.5400 C   0  0  0  0  0  3  0  0  0  0  0  0
  135.9950  135.6950  152.3210 C   0  0  0  0  0  0  0  0  0  0  0  0
  138.6670  138.4160  154.8160 C   0  0  0  0  0  0  0  0  0  0  0  0
  137.7390  137.6820  154.0680 C   0  0  0  0  0  3  0  0  0  0  0  0
  137.9590  137.4090  152.7050 C   0  0  0  0  0  0  0  0  0  0  0  0
  139.1320  137.8820  152.1020 C   0  0  0  0  0  3  0  0  0  0  0  0
  140.0730  138.6010  152.8410 C   0  0  0  0  0  3  0  0  0  0  0  0
  139.8350  138.8670  154.1880 C   0  0  0  0  0  0  0  0  0  0  0  0
  138.4360  137.6710  157.0720 C   0  0  0  0  0  1  0  0  0  0  0  0
  138.5280  138.7390  156.1400 O   0  0  0  0  0  0  0  0  0  0  0  0
  140.7500  139.5840  154.9100 O   0  0  0  0  0  0  0  0  0  0  0  0
  141.2140  140.2910  154.5080 H   0  0  0  0  0  0  0  0  0  0  0  0
  133.6670  133.8970  149.8480 C   0  0  0  0  0  0  0  0  0  0  0  0
  132.4440  133.7900  149.8200 O   0  0  0  0  0  0  0  0  0  0  0  0
  134.4720  133.6270  148.7680 N   0  0  0  0  0  0  0  0  0  0  0  0
  135.4430  133.7610  148.8580 H   0  0  0  0  0  0  0  0  0  0  0  0
  133.9580  133.1550  147.5040 C   0  0  0  0  0  2  0  0  0  0  0  0
  134.9760  133.3130  146.4050 C   0  0  0  0  0  0  0  0  0  0  0  0
  134.6730  132.9200  145.1010 C   0  0  0  0  0  3  0  0  0  0  0  0
  135.6230  133.0440  144.0820 C   0  0  0  0  0  3  0  0  0  0  0  0
  136.8970  133.5760  144.3350 C   0  0  0  0  0  0  0  0  0  0  0  0
  137.2040  133.9960  145.6430 C   0  0  0  0  0  0  0  0  0  0  0  0
  136.2380  133.8640  146.6570 C   0  0  0  0  0  3  0  0  0  0  0  0
  137.8550  133.7100  143.3660 O   0  0  0  0  0  0  0  0  0  0  0  0
  137.7100  132.9710  142.1600 C   0  0  0  0  0  1  0  0  0  0  0  0
  138.3700  134.5450  146.1150 O   0  0  0  0  0  0  0  0  0  0  0  0
  138.5270  134.7270  147.5140 C   0  0  0  0  0  1  0  0  0  0  0  0
  1  9  1  0  0  0  0
  1 12  1  0  0  0  0
  2  1  2  0  0  0  0
  3  2  1  0  0  0  0
  3  4  1  0  0  0  0
  4  9  1  0  0  0  0
  5  4  2  0  0  0  0
  5  6  1  0  0  0  0
  6  7  2  0  0  0  0
  7  8  1  0  0  0  0
  9  8  2  0  0  0  0
 10 17  1  0  0  0  0
 11 10  2  0  0  0  0
 12 11  1  0  0  0  0
 13 12  2  0  0  0  0
 13 14  1  0  0  0  0
 14 15  2  0  0  0  0
 15 10  1  0  0  0  0
 15 18  1  0  0  0  0
 17 16  1  0  0  0  0
 19 18  1  0  0  0  0
 20  5  1  0  0  0  0
 21 20  2  0  0  0  0
 22 23  1  0  0  0  0
 22 20  1  0  0  0  0
 24 22  1  0  0  0  0
 25 30  1  0  0  0  0
 25 24  1  0  0  0  0
 26 25  2  0  0  0  0
 27 28  2  0  0  0  0
 27 26  1  0  0  0  0
 28 29  1  0  0  0  0
 29 33  1  0  0  0  0
 29 30  2  0  0  0  0
 31 28  1  0  0  0  0
 32 31  1  0  0  0  0
 33 34  1  0  0  0  0
M  END
>  <MODEL>
6

>  <REMARK>
 VINA RESULT:    -8.608      5.432      9.503
 INTER + INTRA:         -13.491
 INTER:                 -12.280
 INTRA:                  -1.211
 UNBOUND:                -1.109
  Name = CHEMBL1885454
  11 active torsions:
  status: ('A' for Active; 'I' for Inactive)
    1  A    between atoms: C_1  and  O_2
    2  A    between atoms: O_2  and  C_3
    3  A    between atoms: C_5  and  C_6
    4  A    between atoms: C_10  and  C_11
    5  A    between atoms: N_13  and  C_14
    6  A    between atoms: C_14  and  C_15
    7  A    between atoms: C_18  and  O_19
    8  A    between atoms: O_19  and  C_20
    9  A    between atoms: C_21  and  O_22
   10  A    between atoms: O_22  and  C_23
   11  A    between atoms: C_31  and  O_32
                            x       y       z     vdW  Elec       q    Type
                         _______ _______ _______ _____ _____    ______ ____

>  <TORSDO>
F 8

>  <SCORE>
-8.608

>  <RMSD_LB>
5.432

>  <RMSD_UB>
9.503

$$$$
CHEMBL1885454
 OpenBabel10172500203D

 34 37  0  0  0  0  0  0  0  0999 V2000
  143.6030  139.3780  153.0360 C   0  0  0  0  0  0  0  0  0  0  0  0
  142.5520  138.9200  153.8040 C   0  0  0  0  0  3  0  0  0  0  0  0
  141.4210  138.7990  153.0670 O   0  0  0  0  0  0  0  0  0  0  0  0
  141.7230  139.1820  151.7930 C   0  0  0  0  0  0  0  0  0  0  0  0
  140.8380  139.2160  150.7070 C   0  0  0  0  0  0  0  0  0  0  0  0
  141.3730  139.6550  149.4830 C   0  0  0  0  0  3  0  0  0  0  0  0
  142.7150  140.0180  149.3600 C   0  0  0  0  0  3  0  0  0  0  0  0
  143.5740  139.9590  150.4650 C   0  0  0  0  0  3  0  0  0  0  0  0
  143.0680  139.5470  151.7160 C   0  0  0  0  0  0  0  0  0  0  0  0
  146.9850  140.9560  153.6230 C   0  0  0  0  0  0  0  0  0  0  0  0
  145.6980  140.7220  153.1250 C   0  0  0  0  0  3  0  0  0  0  0  0
  144.9350  139.6280  153.5730 C   0  0  0  0  0  0  0  0  0  0  0  0
  145.4830  138.7720  154.5370 C   0  0  0  0  0  3  0  0  0  0  0  0
  146.7580  139.0040  155.0540 C   0  0  0  0  0  3  0  0  0  0  0  0
  147.5020  140.0890  154.5930 C   0  0  0  0  0  0  0  0  0  0  0  0
  148.3920  141.9070  151.9450 C   0  0  0  0  0  1  0  0  0  0  0  0
  147.8020  141.9860  153.2350 O   0  0  0  0  0  0  0  0  0  0  0  0
  148.7580  140.3100  155.0890 O   0  0  0  0  0  0  0  0  0  0  0  0
  148.8670  140.7330  155.9180 H   0  0  0  0  0  0  0  0  0  0  0  0
  139.4070  138.8270  150.7950 C   0  0  0  0  0  0  0  0  0  0  0  0
  138.5730  139.4300  150.1250 O   0  0  0  0  0  0  0  0  0  0  0  0
  139.0870  137.7950  151.6440 N   0  0  0  0  0  0  0  0  0  0  0  0
  139.8140  137.3410  152.1290 H   0  0  0  0  0  0  0  0  0  0  0  0
  137.7330  137.3450  151.8580 C   0  0  0  0  0  2  0  0  0  0  0  0
  137.4690  137.0690  153.3150 C   0  0  0  0  0  0  0  0  0  0  0  0
  136.4330  136.2160  153.6960 C   0  0  0  0  0  3  0  0  0  0  0  0
  136.1710  135.9750  155.0490 C   0  0  0  0  0  3  0  0  0  0  0  0
  136.9460  136.5680  156.0580 C   0  0  0  0  0  0  0  0  0  0  0  0
  138.0090  137.4120  155.6820 C   0  0  0  0  0  0  0  0  0  0  0  0
  138.2590  137.6450  154.3170 C   0  0  0  0  0  3  0  0  0  0  0  0
  136.7190  136.3600  157.3910 O   0  0  0  0  0  0  0  0  0  0  0  0
  135.5870  135.5920  157.7760 C   0  0  0  0  0  1  0  0  0  0  0  0
  138.8910  138.0890  156.4870 O   0  0  0  0  0  0  0  0  0  0  0  0
  140.2390  137.6510  156.5490 C   0  0  0  0  0  1  0  0  0  0  0  0
  1 12  1  0  0  0  0
  1  2  2  0  0  0  0
  3  2  1  0  0  0  0
  4  3  1  0  0  0  0
  5 20  1  0  0  0  0
  5  4  2  0  0  0  0
  6  5  1  0  0  0  0
  7  6  2  0  0  0  0
  7  8  1  0  0  0  0
  8  9  2  0  0  0  0
  9  4  1  0  0  0  0
  9  1  1  0  0  0  0
 10 15  1  0  0  0  0
 11 12  1  0  0  0  0
 11 10  2  0  0  0  0
 12 13  2  0  0  0  0
 13 14  1  0  0  0  0
 15 14  2  0  0  0  0
 15 18  1  0  0  0  0
 16 17  1  0  0  0  0
 17 10  1  0  0  0  0
 18 19  1  0  0  0  0
 20 22  1  0  0  0  0
 21 20  2  0  0  0  0
 22 24  1  0  0  0  0
 22 23  1  0  0  0  0
 24 25  1  0  0  0  0
 25 26  2  0  0  0  0
 25 30  1  0  0  0  0
 26 27  1  0  0  0  0
 27 28  2  0  0  0  0
 28 31  1  0  0  0  0
 29 28  1  0  0  0  0
 29 33  1  0  0  0  0
 30 29  2  0  0  0  0
 31 32  1  0  0  0  0
 33 34  1  0  0  0  0
M  END
>  <MODEL>
7

>  <REMARK>
 VINA RESULT:    -8.550      2.106      3.317
 INTER + INTRA:         -13.408
 INTER:                 -12.069
 INTRA:                  -1.339
 UNBOUND:                -1.109
  Name = CHEMBL1885454
  11 active torsions:
  status: ('A' for Active; 'I' for Inactive)
    1  A    between atoms: C_1  and  O_2
    2  A    between atoms: O_2  and  C_3
    3  A    between atoms: C_5  and  C_6
    4  A    between atoms: C_10  and  C_11
    5  A    between atoms: N_13  and  C_14
    6  A    between atoms: C_14  and  C_15
    7  A    between atoms: C_18  and  O_19
    8  A    between atoms: O_19  and  C_20
    9  A    between atoms: C_21  and  O_22
   10  A    between atoms: O_22  and  C_23
   11  A    between atoms: C_31  and  O_32
                            x       y       z     vdW  Elec       q    Type
                         _______ _______ _______ _____ _____    ______ ____

>  <TORSDO>
F 8

>  <SCORE>
-8.550

>  <RMSD_LB>
2.106

>  <RMSD_UB>
3.317

$$$$
CHEMBL1885454
 OpenBabel10172500203D

 34 37  0  0  0  0  0  0  0  0999 V2000
  137.6680  136.3560  150.3080 C   0  0  0  0  0  0  0  0  0  0  0  0
  138.4860  136.2590  149.2000 C   0  0  0  0  0  3  0  0  0  0  0  0
  139.6780  136.8630  149.4150 O   0  0  0  0  0  0  0  0  0  0  0  0
  139.6560  137.3700  150.6820 C   0  0  0  0  0  0  0  0  0  0  0  0
  140.6870  138.0810  151.3080 C   0  0  0  0  0  0  0  0  0  0  0  0
  140.4350  138.5160  152.6210 C   0  0  0  0  0  3  0  0  0  0  0  0
  139.2270  138.2360  153.2640 C   0  0  0  0  0  3  0  0  0  0  0  0
  138.2230  137.5100  152.6110 C   0  0  0  0  0  3  0  0  0  0  0  0
  138.4300  137.0790  151.2840 C   0  0  0  0  0  0  0  0  0  0  0  0
  133.9500  135.9780  149.7530 C   0  0  0  0  0  0  0  0  0  0  0  0
  135.2560  136.4790  149.7000 C   0  0  0  0  0  3  0  0  0  0  0  0
  136.3140  135.8180  150.3500 C   0  0  0  0  0  0  0  0  0  0  0  0
  136.0420  134.6380  151.0550 C   0  0  0  0  0  3  0  0  0  0  0  0
  134.7470  134.1190  151.1010 C   0  0  0  0  0  3  0  0  0  0  0  0
  133.7110  134.7900  150.4560 C   0  0  0  0  0  0  0  0  0  0  0  0
  132.7460  136.4650  147.7500 C   0  0  0  0  0  1  0  0  0  0  0  0
  132.8600  136.5620  149.1630 O   0  0  0  0  0  0  0  0  0  0  0  0
  132.4380  134.2900  150.5130 O   0  0  0  0  0  0  0  0  0  0  0  0
  131.8050  134.5480  149.8730 H   0  0  0  0  0  0  0  0  0  0  0  0
  141.9890  138.3910  150.6620 C   0  0  0  0  0  0  0  0  0  0  0  0
  142.6780  137.4770  150.2180 O   0  0  0  0  0  0  0  0  0  0  0  0
  142.3610  139.7120  150.6010 N   0  0  0  0  0  0  0  0  0  0  0  0
  141.7430  140.3920  150.9540 H   0  0  0  0  0  0  0  0  0  0  0  0
  143.6170  140.1490  150.0400 C   0  0  0  0  0  2  0  0  0  0  0  0
  144.5300  140.7010  151.1030 C   0  0  0  0  0  0  0  0  0  0  0  0
  145.2550  141.8700  150.8750 C   0  0  0  0  0  3  0  0  0  0  0  0
  146.1210  142.3730  151.8510 C   0  0  0  0  0  3  0  0  0  0  0  0
  146.2770  141.7280  153.0880 C   0  0  0  0  0  0  0  0  0  0  0  0
  145.5330  140.5590  153.3360 C   0  0  0  0  0  0  0  0  0  0  0  0
  144.6660  140.0660  152.3440 C   0  0  0  0  0  3  0  0  0  0  0  0
  147.1170  142.1870  154.0670 O   0  0  0  0  0  0  0  0  0  0  0  0
  148.4600  141.7200  154.0830 C   0  0  0  0  0  1  0  0  0  0  0  0
  145.5220  139.7740  154.4620 O   0  0  0  0  0  0  0  0  0  0  0  0
  144.2860  139.2530  154.9250 C   0  0  0  0  0  1  0  0  0  0  0  0
  1 12  1  0  0  0  0
  1  9  1  0  0  0  0
  2  3  1  0  0  0  0
  2  1  2  0  0  0  0
  3  4  1  0  0  0  0
  4  9  2  0  0  0  0
  4  5  1  0  0  0  0
  5  6  2  0  0  0  0
  6  7  1  0  0  0  0
  8  7  2  0  0  0  0
  9  8  1  0  0  0  0
 10 15  1  0  0  0  0
 11 10  2  0  0  0  0
 11 12  1  0  0  0  0
 12 13  2  0  0  0  0
 13 14  1  0  0  0  0
 15 18  1  0  0  0  0
 15 14  2  0  0  0  0
 16 17  1  0  0  0  0
 17 10  1  0  0  0  0
 19 18  1  0  0  0  0
 20  5  1  0  0  0  0
 21 20  2  0  0  0  0
 22 20  1  0  0  0  0
 22 23  1  0  0  0  0
 24 22  1  0  0  0  0
 24 25  1  0  0  0  0
 25 30  1  0  0  0  0
 26 25  2  0  0  0  0
 26 27  1  0  0  0  0
 27 28  2  0  0  0  0
 28 29  1  0  0  0  0
 28 31  1  0  0  0  0
 29 33  1  0  0  0  0
 30 29  2  0  0  0  0
 31 32  1  0  0  0  0
 33 34  1  0  0  0  0
M  END
>  <MODEL>
8

>  <REMARK>
 VINA RESULT:    -8.491      3.332     11.288
 INTER + INTRA:         -13.323
 INTER:                 -12.300
 INTRA:                  -1.023
 UNBOUND:                -1.109
  Name = CHEMBL1885454
  11 active torsions:
  status: ('A' for Active; 'I' for Inactive)
    1  A    between atoms: C_1  and  O_2
    2  A    between atoms: O_2  and  C_3
    3  A    between atoms: C_5  and  C_6
    4  A    between atoms: C_10  and  C_11
    5  A    between atoms: N_13  and  C_14
    6  A    between atoms: C_14  and  C_15
    7  A    between atoms: C_18  and  O_19
    8  A    between atoms: O_19  and  C_20
    9  A    between atoms: C_21  and  O_22
   10  A    between atoms: O_22  and  C_23
   11  A    between atoms: C_31  and  O_32
                            x       y       z     vdW  Elec       q    Type
                         _______ _______ _______ _____ _____    ______ ____

>  <TORSDO>
F 8

>  <SCORE>
-8.491

>  <RMSD_LB>
3.332

>  <RMSD_UB>
11.288

$$$$
CHEMBL1885454
 OpenBabel10172500203D

 34 37  0  0  0  0  0  0  0  0999 V2000
  139.3240  137.9170  152.6740 C   0  0  0  0  0  0  0  0  0  0  0  0
  138.5190  137.5440  151.6160 C   0  0  0  0  0  3  0  0  0  0  0  0
  137.3520  137.0120  152.0520 O   0  0  0  0  0  0  0  0  0  0  0  0
  137.3790  137.0310  153.4160 C   0  0  0  0  0  0  0  0  0  0  0  0
  136.3720  136.5660  154.2710 C   0  0  0  0  0  0  0  0  0  0  0  0
  136.6240  136.6800  155.6490 C   0  0  0  0  0  3  0  0  0  0  0  0
  137.8080  137.2410  156.1310 C   0  0  0  0  0  3  0  0  0  0  0  0
  138.7880  137.7080  155.2460 C   0  0  0  0  0  3  0  0  0  0  0  0
  138.5810  137.5880  153.8550 C   0  0  0  0  0  0  0  0  0  0  0  0
  142.8330  139.1020  153.4200 C   0  0  0  0  0  0  0  0  0  0  0  0
  141.5630  138.5330  153.5730 C   0  0  0  0  0  3  0  0  0  0  0  0
  140.6530  138.4930  152.5020 C   0  0  0  0  0  0  0  0  0  0  0  0
  141.0370  139.0300  151.2670 C   0  0  0  0  0  3  0  0  0  0  0  0
  142.3060  139.5850  151.0960 C   0  0  0  0  0  3  0  0  0  0  0  0
  143.1930  139.6220  152.1700 C   0  0  0  0  0  0  0  0  0  0  0  0
  143.3910  139.8130  155.6290 C   0  0  0  0  0  1  0  0  0  0  0  0
  143.7760  139.1960  154.4090 O   0  0  0  0  0  0  0  0  0  0  0  0
  144.4330  140.1790  152.0080 O   0  0  0  0  0  0  0  0  0  0  0  0
  144.5180  141.0320  151.6290 H   0  0  0  0  0  0  0  0  0  0  0  0
  135.0940  135.9720  153.7970 C   0  0  0  0  0  0  0  0  0  0  0  0
  134.0350  136.3320  154.3020 O   0  0  0  0  0  0  0  0  0  0  0  0
  135.1720  135.0280  152.8020 N   0  0  0  0  0  0  0  0  0  0  0  0
  136.0560  134.8100  152.4270 H   0  0  0  0  0  0  0  0  0  0  0  0
  134.0160  134.3400  152.2800 C   0  0  0  0  0  2  0  0  0  0  0  0
  133.6320  134.8660  150.9210 C   0  0  0  0  0  0  0  0  0  0  0  0
  133.0840  136.1420  150.7860 C   0  0  0  0  0  3  0  0  0  0  0  0
  132.7060  136.6250  149.5290 C   0  0  0  0  0  3  0  0  0  0  0  0
  132.8770  135.8510  148.3700 C   0  0  0  0  0  0  0  0  0  0  0  0
  133.4500  134.5710  148.4940 C   0  0  0  0  0  0  0  0  0  0  0  0
  133.8250  134.0990  149.7650 C   0  0  0  0  0  3  0  0  0  0  0  0
  132.5170  136.2870  147.1240 O   0  0  0  0  0  0  0  0  0  0  0  0
  133.1620  137.4360  146.5920 C   0  0  0  0  0  1  0  0  0  0  0  0
  133.7130  133.6520  147.5090 O   0  0  0  0  0  0  0  0  0  0  0  0
  134.8110  132.7670  147.6690 C   0  0  0  0  0  1  0  0  0  0  0  0
  1  9  1  0  0  0  0
  2  3  1  0  0  0  0
  2  1  2  0  0  0  0
  3  4  1  0  0  0  0
  4  9  2  0  0  0  0
  4  5  1  0  0  0  0
  5  6  2  0  0  0  0
  6  7  1  0  0  0  0
  8  7  2  0  0  0  0
  9  8  1  0  0  0  0
 10 11  1  0  0  0  0
 10 17  1  0  0  0  0
 12  1  1  0  0  0  0
 12 11  2  0  0  0  0
 13 12  1  0  0  0  0
 14 13  2  0  0  0  0
 14 15  1  0  0  0  0
 15 10  2  0  0  0  0
 17 16  1  0  0  0  0
 18 15  1  0  0  0  0
 19 18  1  0  0  0  0
 20  5  1  0  0  0  0
 20 21  2  0  0  0  0
 22 20  1  0  0  0  0
 23 22  1  0  0  0  0
 24 22  1  0  0  0  0
 25 24  1  0  0  0  0
 26 25  1  0  0  0  0
 27 26  2  0  0  0  0
 28 29  2  0  0  0  0
 28 27  1  0  0  0  0
 29 30  1  0  0  0  0
 30 25  2  0  0  0  0
 31 28  1  0  0  0  0
 32 31  1  0  0  0  0
 33 34  1  0  0  0  0
 33 29  1  0  0  0  0
M  END
>  <MODEL>
9

>  <REMARK>
 VINA RESULT:    -8.357      3.198      6.199
 INTER + INTRA:         -13.131
 INTER:                 -12.021
 INTRA:                  -1.109
 UNBOUND:                -1.109
  Name = CHEMBL1885454
  11 active torsions:
  status: ('A' for Active; 'I' for Inactive)
    1  A    between atoms: C_1  and  O_2
    2  A    between atoms: O_2  and  C_3
    3  A    between atoms: C_5  and  C_6
    4  A    between atoms: C_10  and  C_11
    5  A    between atoms: N_13  and  C_14
    6  A    between atoms: C_14  and  C_15
    7  A    between atoms: C_18  and  O_19
    8  A    between atoms: O_19  and  C_20
    9  A    between atoms: C_21  and  O_22
   10  A    between atoms: O_22  and  C_23
   11  A    between atoms: C_31  and  O_32
                            x       y       z     vdW  Elec       q    Type
                         _______ _______ _______ _____ _____    ______ ____

>  <TORSDO>
F 8

>  <SCORE>
-8.357

>  <RMSD_LB>
3.198

>  <RMSD_UB>
6.199

$$$$
