CHEMBL146728
 OpenBabel10172500563D

 27 28  0  0  1  0  0  0  0  0999 V2000
  145.4880  137.7130  149.3710 N   0  0  0  0  0  0  0  0  0  0  0  0
  145.3210  139.0170  149.0010 C   0  0  1  0  0  3  0  0  0  0  0  0
  146.3250  139.8320  148.9670 N   0  0  0  0  0  0  0  0  0  0  0  0
  144.8320  137.0500  149.0570 H   0  0  0  0  0  0  0  0  0  0  0  0
  147.1970  139.5080  149.2900 H   0  0  0  0  0  0  0  0  0  0  0  0
  143.6730  139.4300  148.5640 S   0  0  0  0  0  0  0  0  0  0  0  0
  143.0500  138.3330  148.0570 H   0  0  0  0  0  0  0  0  0  0  0  0
  146.2460  141.1190  148.5070 C   0  0  0  0  0  3  0  0  0  0  0  0
  146.5450  142.1870  149.2660 C   0  0  0  0  0  3  0  0  0  0  0  0
  147.0420  142.1590  150.6570 C   0  0  0  0  0  0  0  0  0  0  0  0
  148.4180  142.0440  150.8990 C   0  0  0  0  0  3  0  0  0  0  0  0
  148.9080  141.9730  152.2090 C   0  0  0  0  0  3  0  0  0  0  0  0
  148.0250  142.0190  153.2860 C   0  0  0  0  0  0  0  0  0  0  0  0
  148.6190  141.8920  154.8940 Cl  0  0  0  0  0  0  0  0  0  0  0  0
  146.6630  142.1700  153.0660 C   0  0  0  0  0  3  0  0  0  0  0  0
  146.1810  142.2610  151.7610 C   0  0  0  0  0  3  0  0  0  0  0  0
  146.5830  137.2580  150.2030 C   0  0  0  0  0  2  0  0  0  0  0  0
  145.3780  138.3420  153.6950 C   0  0  0  0  0  0  0  0  0  0  0  0
  145.3560  137.9050  152.3620 C   0  0  0  0  0  3  0  0  0  0  0  0
  146.5450  137.7970  151.6180 C   0  0  0  0  0  0  0  0  0  0  0  0
  147.7630  138.0960  152.2530 C   0  0  0  0  0  3  0  0  0  0  0  0
  147.7980  138.5240  153.5820 C   0  0  0  0  0  3  0  0  0  0  0  0
  146.6080  138.6540  154.2910 C   0  0  0  0  0  0  0  0  0  0  0  0
  143.1560  139.1730  153.9590 C   0  0  0  0  0  1  0  0  0  0  0  0
  144.2750  138.4860  154.4980 O   0  0  0  0  0  0  0  0  0  0  0  0
  146.6400  139.0810  155.5920 O   0  0  0  0  0  0  0  0  0  0  0  0
  146.8930  139.9620  155.7910 H   0  0  0  0  0  0  0  0  0  0  0  0
  1 17  1  0  0  0  0
  2  6  1  6  0  0  0
  2  1  1  0  0  0  0
  3  2  1  0  0  0  0
  3  5  1  0  0  0  0
  4  1  1  0  0  0  0
  7  6  1  0  0  0  0
  8  3  1  0  0  0  0
  8  9  2  0  0  0  0
  9 10  1  0  0  0  0
 10 11  2  0  0  0  0
 10 16  1  0  0  0  0
 11 12  1  0  0  0  0
 12 13  2  0  0  0  0
 13 14  1  0  0  0  0
 15 13  1  0  0  0  0
 16 15  2  0  0  0  0
 17 20  1  0  0  0  0
 18 23  1  0  0  0  0
 18 25  1  0  0  0  0
 19 18  2  0  0  0  0
 20 21  2  0  0  0  0
 20 19  1  0  0  0  0
 21 22  1  0  0  0  0
 22 23  2  0  0  0  0
 23 26  1  0  0  0  0
 24 25  1  0  0  0  0
 26 27  1  0  0  0  0
M  END
>  <MODEL>
1

>  <REMARK>
 VINA RESULT:    -7.240      0.000      0.000
 INTER + INTRA:         -11.021
 INTER:                  -9.413
 INTRA:                  -1.608
 UNBOUND:                -1.241
  Name = CHEMBL146728
  8 active torsions:
  status: ('A' for Active; 'I' for Inactive)
    1  A    between atoms: C_1  and  O_2
    2  A    between atoms: O_2  and  C_3
    3  A    between atoms: C_5  and  C_6
    4  A    between atoms: C_6  and  N_7
    5  A    between atoms: C_8  and  S_9
    6  A    between atoms: N_10  and  C_11
    7  A    between atoms: C_12  and  C_13
    8  A    between atoms: C_22  and  O_23
                            x       y       z     vdW  Elec       q    Type
                         _______ _______ _______ _____ _____    ______ ____

>  <TORSDO>
F 7

>  <SCORE>
-7.240

>  <RMSD_LB>
0.000

>  <RMSD_UB>
0.000

$$$$
CHEMBL146728
 OpenBabel10172500563D

 27 28  0  0  1  0  0  0  0  0999 V2000
  143.6730  137.6560  153.7930 N   0  0  0  0  0  0  0  0  0  0  0  0
  144.9720  137.7430  154.2060 C   0  0  1  0  0  3  0  0  0  0  0  0
  145.3650  138.7150  154.9630 N   0  0  0  0  0  0  0  0  0  0  0  0
  143.3200  136.7720  153.5420 H   0  0  0  0  0  0  0  0  0  0  0  0
  144.7220  139.4330  155.1680 H   0  0  0  0  0  0  0  0  0  0  0  0
  145.9880  136.4260  153.6480 S   0  0  0  0  0  0  0  0  0  0  0  0
  145.2620  135.6010  152.8470 H   0  0  0  0  0  0  0  0  0  0  0  0
  146.6220  138.8050  155.4960 C   0  0  0  0  0  3  0  0  0  0  0  0
  147.6050  139.5310  154.9370 C   0  0  0  0  0  3  0  0  0  0  0  0
  147.4900  140.3710  153.7260 C   0  0  0  0  0  0  0  0  0  0  0  0
  146.7770  141.5770  153.7850 C   0  0  0  0  0  3  0  0  0  0  0  0
  146.6190  142.3680  152.6400 C   0  0  0  0  0  3  0  0  0  0  0  0
  147.1770  141.9590  151.4290 C   0  0  0  0  0  0  0  0  0  0  0  0
  146.9510  142.9070  150.0130 Cl  0  0  0  0  0  0  0  0  0  0  0  0
  147.9160  140.7870  151.3610 C   0  0  0  0  0  3  0  0  0  0  0  0
  148.0880  140.0130  152.5090 C   0  0  0  0  0  3  0  0  0  0  0  0
  142.7900  138.8010  153.7060 C   0  0  0  0  0  2  0  0  0  0  0  0
  139.1440  138.4020  154.8760 C   0  0  0  0  0  0  0  0  0  0  0  0
  140.5200  138.6780  154.8960 C   0  0  0  0  0  3  0  0  0  0  0  0
  141.3180  138.4490  153.7600 C   0  0  0  0  0  0  0  0  0  0  0  0
  140.7000  137.9750  152.5900 C   0  0  0  0  0  3  0  0  0  0  0  0
  139.3300  137.7050  152.5560 C   0  0  0  0  0  3  0  0  0  0  0  0
  138.5630  137.9090  153.6990 C   0  0  0  0  0  0  0  0  0  0  0  0
  138.4570  137.7560  157.0680 C   0  0  0  0  0  1  0  0  0  0  0  0
  138.2870  138.5860  155.9300 O   0  0  0  0  0  0  0  0  0  0  0  0
  137.2210  137.6370  153.6700 O   0  0  0  0  0  0  0  0  0  0  0  0
  136.7620  137.6290  152.8530 H   0  0  0  0  0  0  0  0  0  0  0  0
  1  2  1  0  0  0  0
  2  6  1  1  0  0  0
  2  3  1  0  0  0  0
  3  5  1  0  0  0  0
  3  8  1  0  0  0  0
  4  1  1  0  0  0  0
  7  6  1  0  0  0  0
  9  8  2  0  0  0  0
 10 11  1  0  0  0  0
 10  9  1  0  0  0  0
 12 11  2  0  0  0  0
 13 12  1  0  0  0  0
 14 13  1  0  0  0  0
 15 13  2  0  0  0  0
 15 16  1  0  0  0  0
 16 10  2  0  0  0  0
 17 20  1  0  0  0  0
 17  1  1  0  0  0  0
 18 19  1  0  0  0  0
 18 25  1  0  0  0  0
 20 19  2  0  0  0  0
 21 20  1  0  0  0  0
 22 21  2  0  0  0  0
 22 23  1  0  0  0  0
 23 18  2  0  0  0  0
 25 24  1  0  0  0  0
 26 23  1  0  0  0  0
 27 26  1  0  0  0  0
M  END
>  <MODEL>
2

>  <REMARK>
 VINA RESULT:    -7.119      3.853      5.857
 INTER + INTRA:         -10.858
 INTER:                 -10.359
 INTRA:                  -0.499
 UNBOUND:                -1.241
  Name = CHEMBL146728
  8 active torsions:
  status: ('A' for Active; 'I' for Inactive)
    1  A    between atoms: C_1  and  O_2
    2  A    between atoms: O_2  and  C_3
    3  A    between atoms: C_5  and  C_6
    4  A    between atoms: C_6  and  N_7
    5  A    between atoms: C_8  and  S_9
    6  A    between atoms: N_10  and  C_11
    7  A    between atoms: C_12  and  C_13
    8  A    between atoms: C_22  and  O_23
                            x       y       z     vdW  Elec       q    Type
                         _______ _______ _______ _____ _____    ______ ____

>  <TORSDO>
F 7

>  <SCORE>
-7.119

>  <RMSD_LB>
3.853

>  <RMSD_UB>
5.857

$$$$
CHEMBL146728
 OpenBabel10172500563D

 27 28  0  0  1  0  0  0  0  0999 V2000
  146.1870  137.4250  149.6280 N   0  0  0  0  0  0  0  0  0  0  0  0
  146.2720  138.5950  148.9310 C   0  0  1  0  0  3  0  0  0  0  0  0
  145.6620  139.6590  149.3410 N   0  0  0  0  0  0  0  0  0  0  0  0
  146.9070  136.7620  149.5200 H   0  0  0  0  0  0  0  0  0  0  0  0
  145.0710  139.5820  150.1260 H   0  0  0  0  0  0  0  0  0  0  0  0
  147.2840  138.5030  147.5010 S   0  0  0  0  0  0  0  0  0  0  0  0
  147.5650  137.2010  147.2280 H   0  0  0  0  0  0  0  0  0  0  0  0
  145.7890  140.8870  148.7500 C   0  0  0  0  0  3  0  0  0  0  0  0
  146.3110  141.9530  149.3800 C   0  0  0  0  0  3  0  0  0  0  0  0
  146.8680  141.9720  150.7490 C   0  0  0  0  0  0  0  0  0  0  0  0
  148.2500  141.8290  150.9380 C   0  0  0  0  0  3  0  0  0  0  0  0
  148.7940  141.8030  152.2280 C   0  0  0  0  0  3  0  0  0  0  0  0
  147.9590  141.9210  153.3380 C   0  0  0  0  0  0  0  0  0  0  0  0
  148.6190  141.8490  154.9240 Cl  0  0  0  0  0  0  0  0  0  0  0  0
  146.5940  142.1000  153.1690 C   0  0  0  0  0  3  0  0  0  0  0  0
  146.0590  142.1470  151.8820 C   0  0  0  0  0  3  0  0  0  0  0  0
  145.0890  137.1090  150.5190 C   0  0  0  0  0  2  0  0  0  0  0  0
  146.6730  138.3140  153.8140 C   0  0  0  0  0  0  0  0  0  0  0  0
  146.5430  137.7690  152.5270 C   0  0  0  0  0  3  0  0  0  0  0  0
  145.2770  137.6190  151.9320 C   0  0  0  0  0  0  0  0  0  0  0  0
  144.1460  138.0650  152.6380 C   0  0  0  0  0  3  0  0  0  0  0  0
  144.2640  138.6160  153.9160 C   0  0  0  0  0  3  0  0  0  0  0  0
  145.5220  138.7280  154.5000 C   0  0  0  0  0  0  0  0  0  0  0  0
  148.9860  137.7630  154.0210 C   0  0  0  0  0  1  0  0  0  0  0  0
  147.8590  138.4940  154.4790 O   0  0  0  0  0  0  0  0  0  0  0  0
  145.6390  139.2610  155.7560 O   0  0  0  0  0  0  0  0  0  0  0  0
  146.4870  139.4190  156.1220 H   0  0  0  0  0  0  0  0  0  0  0  0
  1 17  1  0  0  0  0
  2  6  1  1  0  0  0
  2  3  1  0  0  0  0
  2  1  1  0  0  0  0
  3  5  1  0  0  0  0
  4  1  1  0  0  0  0
  7  6  1  0  0  0  0
  8  3  1  0  0  0  0
  8  9  2  0  0  0  0
  9 10  1  0  0  0  0
 10 11  2  0  0  0  0
 10 16  1  0  0  0  0
 11 12  1  0  0  0  0
 12 13  2  0  0  0  0
 13 14  1  0  0  0  0
 15 13  1  0  0  0  0
 16 15  2  0  0  0  0
 17 20  1  0  0  0  0
 18 25  1  0  0  0  0
 18 23  1  0  0  0  0
 19 18  2  0  0  0  0
 20 19  1  0  0  0  0
 20 21  2  0  0  0  0
 21 22  1  0  0  0  0
 22 23  2  0  0  0  0
 23 26  1  0  0  0  0
 24 25  1  0  0  0  0
 26 27  1  0  0  0  0
M  END
>  <MODEL>
3

>  <REMARK>
 VINA RESULT:    -7.031      1.187      2.109
 INTER + INTRA:         -10.739
 INTER:                  -9.383
 INTRA:                  -1.356
 UNBOUND:                -1.241
  Name = CHEMBL146728
  8 active torsions:
  status: ('A' for Active; 'I' for Inactive)
    1  A    between atoms: C_1  and  O_2
    2  A    between atoms: O_2  and  C_3
    3  A    between atoms: C_5  and  C_6
    4  A    between atoms: C_6  and  N_7
    5  A    between atoms: C_8  and  S_9
    6  A    between atoms: N_10  and  C_11
    7  A    between atoms: C_12  and  C_13
    8  A    between atoms: C_22  and  O_23
                            x       y       z     vdW  Elec       q    Type
                         _______ _______ _______ _____ _____    ______ ____

>  <TORSDO>
F 7

>  <SCORE>
-7.031

>  <RMSD_LB>
1.187

>  <RMSD_UB>
2.109

$$$$
CHEMBL146728
 OpenBabel10172500563D

 27 28  0  0  1  0  0  0  0  0999 V2000
  145.1740  141.0520  149.5020 N   0  0  0  0  0  0  0  0  0  0  0  0
  145.0550  139.7430  149.1310 C   0  0  1  0  0  3  0  0  0  0  0  0
  145.9980  138.8930  149.3780 N   0  0  0  0  0  0  0  0  0  0  0  0
  144.3530  141.5770  149.6370 H   0  0  0  0  0  0  0  0  0  0  0  0
  146.8370  139.2310  149.7690 H   0  0  0  0  0  0  0  0  0  0  0  0
  143.5310  139.3590  148.3510 S   0  0  0  0  0  0  0  0  0  0  0  0
  143.7020  138.2960  147.5210 H   0  0  0  0  0  0  0  0  0  0  0  0
  145.8980  137.5510  149.1280 C   0  0  0  0  0  3  0  0  0  0  0  0
  146.2350  136.6120  150.0290 C   0  0  0  0  0  3  0  0  0  0  0  0
  146.7010  136.8540  151.4100 C   0  0  0  0  0  0  0  0  0  0  0  0
  145.8670  136.5290  152.4900 C   0  0  0  0  0  3  0  0  0  0  0  0
  146.2710  136.7880  153.8050 C   0  0  0  0  0  3  0  0  0  0  0  0
  147.5140  137.3710  154.0500 C   0  0  0  0  0  0  0  0  0  0  0  0
  147.9960  137.7280  155.6610 Cl  0  0  0  0  0  0  0  0  0  0  0  0
  148.3670  137.6650  152.9960 C   0  0  0  0  0  3  0  0  0  0  0  0
  147.9690  137.3860  151.6890 C   0  0  0  0  0  3  0  0  0  0  0  0
  146.4520  141.7050  149.7070 C   0  0  0  0  0  2  0  0  0  0  0  0
  146.7330  140.9930  153.4800 C   0  0  0  0  0  0  0  0  0  0  0  0
  146.1910  141.1200  152.1910 C   0  0  0  0  0  3  0  0  0  0  0  0
  146.9650  141.6200  151.1290 C   0  0  0  0  0  0  0  0  0  0  0  0
  148.3090  141.9520  151.3760 C   0  0  0  0  0  3  0  0  0  0  0  0
  148.8610  141.8220  152.6520 C   0  0  0  0  0  3  0  0  0  0  0  0
  148.0700  141.3540  153.6960 C   0  0  0  0  0  0  0  0  0  0  0  0
  144.7800  139.9450  154.3650 C   0  0  0  0  0  1  0  0  0  0  0  0
  146.0590  140.5230  154.5770 O   0  0  0  0  0  0  0  0  0  0  0  0
  148.6090  141.2330  154.9500 O   0  0  0  0  0  0  0  0  0  0  0  0
  148.3000  141.7780  155.6470 H   0  0  0  0  0  0  0  0  0  0  0  0
  1  4  1  0  0  0  0
  1 17  1  0  0  0  0
  2  6  1  1  0  0  0
  2  3  1  0  0  0  0
  2  1  1  0  0  0  0
  3  5  1  0  0  0  0
  7  6  1  0  0  0  0
  8  3  1  0  0  0  0
  8  9  2  0  0  0  0
  9 10  1  0  0  0  0
 10 16  2  0  0  0  0
 10 11  1  0  0  0  0
 11 12  2  0  0  0  0
 12 13  1  0  0  0  0
 13 14  1  0  0  0  0
 15 13  2  0  0  0  0
 16 15  1  0  0  0  0
 17 20  1  0  0  0  0
 18 23  1  0  0  0  0
 18 25  1  0  0  0  0
 19 18  2  0  0  0  0
 20 21  2  0  0  0  0
 20 19  1  0  0  0  0
 21 22  1  0  0  0  0
 22 23  2  0  0  0  0
 23 26  1  0  0  0  0
 24 25  1  0  0  0  0
 26 27  1  0  0  0  0
M  END
>  <MODEL>
4

>  <REMARK>
 VINA RESULT:    -6.870      1.565      3.994
 INTER + INTRA:         -10.522
 INTER:                  -9.167
 INTRA:                  -1.354
 UNBOUND:                -1.241
  Name = CHEMBL146728
  8 active torsions:
  status: ('A' for Active; 'I' for Inactive)
    1  A    between atoms: C_1  and  O_2
    2  A    between atoms: O_2  and  C_3
    3  A    between atoms: C_5  and  C_6
    4  A    between atoms: C_6  and  N_7
    5  A    between atoms: C_8  and  S_9
    6  A    between atoms: N_10  and  C_11
    7  A    between atoms: C_12  and  C_13
    8  A    between atoms: C_22  and  O_23
                            x       y       z     vdW  Elec       q    Type
                         _______ _______ _______ _____ _____    ______ ____

>  <TORSDO>
F 7

>  <SCORE>
-6.870

>  <RMSD_LB>
1.565

>  <RMSD_UB>
3.994

$$$$
CHEMBL146728
 OpenBabel10172500563D

 27 28  0  0  1  0  0  0  0  0999 V2000
  138.3500  136.7900  150.8080 N   0  0  0  0  0  0  0  0  0  0  0  0
  139.2350  137.5540  151.5150 C   0  0  1  0  0  3  0  0  0  0  0  0
  138.8420  138.2670  152.5190 N   0  0  0  0  0  0  0  0  0  0  0  0
  138.6950  136.0140  150.3120 H   0  0  0  0  0  0  0  0  0  0  0  0
  137.8770  138.3070  152.7120 H   0  0  0  0  0  0  0  0  0  0  0  0
  140.8910  137.4340  150.9500 S   0  0  0  0  0  0  0  0  0  0  0  0
  140.9530  136.5640  149.9060 H   0  0  0  0  0  0  0  0  0  0  0  0
  139.6900  138.9710  153.3320 C   0  0  0  0  0  3  0  0  0  0  0  0
  139.6510  138.8940  154.6730 C   0  0  0  0  0  3  0  0  0  0  0  0
  138.7570  138.0300  155.4730 C   0  0  0  0  0  0  0  0  0  0  0  0
  139.2700  136.8740  156.0770 C   0  0  0  0  0  3  0  0  0  0  0  0
  138.4330  136.0180  156.8050 C   0  0  0  0  0  3  0  0  0  0  0  0
  137.0770  136.3160  156.9340 C   0  0  0  0  0  0  0  0  0  0  0  0
  136.0390  135.2480  157.7920 Cl  0  0  0  0  0  0  0  0  0  0  0  0
  136.5600  137.4750  156.3740 C   0  0  0  0  0  3  0  0  0  0  0  0
  137.4010  138.3340  155.6680 C   0  0  0  0  0  3  0  0  0  0  0  0
  136.9290  137.0680  150.7530 C   0  0  0  0  0  2  0  0  0  0  0  0
  134.4980  134.2250  151.6620 C   0  0  0  0  0  0  0  0  0  0  0  0
  135.2130  135.1680  150.9060 C   0  0  0  0  0  3  0  0  0  0  0  0
  136.0790  136.0840  151.5290 C   0  0  0  0  0  0  0  0  0  0  0  0
  136.2470  136.0090  152.9230 C   0  0  0  0  0  3  0  0  0  0  0  0
  135.5480  135.0700  153.6840 C   0  0  0  0  0  3  0  0  0  0  0  0
  134.6720  134.1920  153.0530 C   0  0  0  0  0  0  0  0  0  0  0  0
  132.7000  133.7380  150.1720 C   0  0  0  0  0  1  0  0  0  0  0  0
  133.6280  133.2970  151.1500 O   0  0  0  0  0  0  0  0  0  0  0  0
  133.9800  133.2760  153.8000 O   0  0  0  0  0  0  0  0  0  0  0  0
  133.1790  133.5220  154.2200 H   0  0  0  0  0  0  0  0  0  0  0  0
  1  2  1  0  0  0  0
  2  6  1  1  0  0  0
  2  3  1  0  0  0  0
  3  5  1  0  0  0  0
  3  8  1  0  0  0  0
  4  1  1  0  0  0  0
  7  6  1  0  0  0  0
  8  9  2  0  0  0  0
  9 10  1  0  0  0  0
 10 16  2  0  0  0  0
 10 11  1  0  0  0  0
 11 12  2  0  0  0  0
 12 13  1  0  0  0  0
 13 14  1  0  0  0  0
 15 13  2  0  0  0  0
 16 15  1  0  0  0  0
 17  1  1  0  0  0  0
 17 20  1  0  0  0  0
 18 23  1  0  0  0  0
 19 20  1  0  0  0  0
 19 18  2  0  0  0  0
 20 21  2  0  0  0  0
 21 22  1  0  0  0  0
 23 22  2  0  0  0  0
 23 26  1  0  0  0  0
 24 25  1  0  0  0  0
 25 18  1  0  0  0  0
 26 27  1  0  0  0  0
M  END
>  <MODEL>
5

>  <REMARK>
 VINA RESULT:    -6.800      8.582     11.036
 INTER + INTRA:         -10.427
 INTER:                  -9.163
 INTRA:                  -1.264
 UNBOUND:                -1.241
  Name = CHEMBL146728
  8 active torsions:
  status: ('A' for Active; 'I' for Inactive)
    1  A    between atoms: C_1  and  O_2
    2  A    between atoms: O_2  and  C_3
    3  A    between atoms: C_5  and  C_6
    4  A    between atoms: C_6  and  N_7
    5  A    between atoms: C_8  and  S_9
    6  A    between atoms: N_10  and  C_11
    7  A    between atoms: C_12  and  C_13
    8  A    between atoms: C_22  and  O_23
                            x       y       z     vdW  Elec       q    Type
                         _______ _______ _______ _____ _____    ______ ____

>  <TORSDO>
F 7

>  <SCORE>
-6.800

>  <RMSD_LB>
8.582

>  <RMSD_UB>
11.036

$$$$
CHEMBL146728
 OpenBabel10172500563D

 27 28  0  0  1  0  0  0  0  0999 V2000
  144.5150  140.2860  148.4330 N   0  0  0  0  0  0  0  0  0  0  0  0
  144.0750  139.0000  148.3080 C   0  0  1  0  0  3  0  0  0  0  0  0
  144.6250  138.0410  148.9800 N   0  0  0  0  0  0  0  0  0  0  0  0
  143.8920  141.0170  148.2160 H   0  0  0  0  0  0  0  0  0  0  0  0
  145.4180  138.2520  149.5240 H   0  0  0  0  0  0  0  0  0  0  0  0
  142.7210  138.8120  147.2090 S   0  0  0  0  0  0  0  0  0  0  0  0
  142.6710  139.8770  146.3640 H   0  0  0  0  0  0  0  0  0  0  0  0
  144.1670  136.7510  148.9810 C   0  0  0  0  0  3  0  0  0  0  0  0
  143.4970  136.2130  150.0140 C   0  0  0  0  0  3  0  0  0  0  0  0
  143.1050  136.9070  151.2580 C   0  0  0  0  0  0  0  0  0  0  0  0
  141.7590  137.2350  151.4740 C   0  0  0  0  0  3  0  0  0  0  0  0
  141.3710  137.9300  152.6270 C   0  0  0  0  0  3  0  0  0  0  0  0
  142.3260  138.3000  153.5720 C   0  0  0  0  0  0  0  0  0  0  0  0
  141.8590  139.1880  154.9670 Cl  0  0  0  0  0  0  0  0  0  0  0  0
  143.6570  137.9510  153.3920 C   0  0  0  0  0  3  0  0  0  0  0  0
  144.0360  137.2410  152.2530 C   0  0  0  0  0  3  0  0  0  0  0  0
  145.8540  140.6290  148.8680 C   0  0  0  0  0  2  0  0  0  0  0  0
  146.6310  140.3180  152.6260 C   0  0  0  0  0  0  0  0  0  0  0  0
  146.4810  139.9840  151.2710 C   0  0  0  0  0  3  0  0  0  0  0  0
  145.9640  140.9140  150.3510 C   0  0  0  0  0  0  0  0  0  0  0  0
  145.6400  142.2030  150.8110 C   0  0  0  0  0  3  0  0  0  0  0  0
  145.7930  142.5490  152.1550 C   0  0  0  0  0  3  0  0  0  0  0  0
  146.2770  141.6050  153.0550 C   0  0  0  0  0  0  0  0  0  0  0  0
  147.6370  138.2270  153.1820 C   0  0  0  0  0  1  0  0  0  0  0  0
  147.1180  139.4810  153.5970 O   0  0  0  0  0  0  0  0  0  0  0  0
  146.4210  141.9410  154.3750 O   0  0  0  0  0  0  0  0  0  0  0  0
  145.6930  142.2890  154.8520 H   0  0  0  0  0  0  0  0  0  0  0  0
  1 17  1  0  0  0  0
  2  6  1  1  0  0  0
  2  1  1  0  0  0  0
  2  3  1  0  0  0  0
  3  8  1  0  0  0  0
  3  5  1  0  0  0  0
  4  1  1  0  0  0  0
  7  6  1  0  0  0  0
  8  9  2  0  0  0  0
  9 10  1  0  0  0  0
 10 11  2  0  0  0  0
 10 16  1  0  0  0  0
 11 12  1  0  0  0  0
 12 13  2  0  0  0  0
 13 14  1  0  0  0  0
 15 13  1  0  0  0  0
 16 15  2  0  0  0  0
 17 20  1  0  0  0  0
 18 23  1  0  0  0  0
 18 25  1  0  0  0  0
 19 18  2  0  0  0  0
 20 21  2  0  0  0  0
 20 19  1  0  0  0  0
 21 22  1  0  0  0  0
 22 23  2  0  0  0  0
 23 26  1  0  0  0  0
 24 25  1  0  0  0  0
 26 27  1  0  0  0  0
M  END
>  <MODEL>
6

>  <REMARK>
 VINA RESULT:    -6.600      2.466      4.960
 INTER + INTRA:         -10.157
 INTER:                  -9.056
 INTRA:                  -1.100
 UNBOUND:                -1.241
  Name = CHEMBL146728
  8 active torsions:
  status: ('A' for Active; 'I' for Inactive)
    1  A    between atoms: C_1  and  O_2
    2  A    between atoms: O_2  and  C_3
    3  A    between atoms: C_5  and  C_6
    4  A    between atoms: C_6  and  N_7
    5  A    between atoms: C_8  and  S_9
    6  A    between atoms: N_10  and  C_11
    7  A    between atoms: C_12  and  C_13
    8  A    between atoms: C_22  and  O_23
                            x       y       z     vdW  Elec       q    Type
                         _______ _______ _______ _____ _____    ______ ____

>  <TORSDO>
F 7

>  <SCORE>
-6.600

>  <RMSD_LB>
2.466

>  <RMSD_UB>
4.960

$$$$
CHEMBL146728
 OpenBabel10172500563D

 27 28  0  0  1  0  0  0  0  0999 V2000
  134.9110  137.7730  147.7330 N   0  0  0  0  0  0  0  0  0  0  0  0
  134.1650  136.6310  147.6740 C   0  0  1  0  0  3  0  0  0  0  0  0
  134.7040  135.4730  147.8760 N   0  0  0  0  0  0  0  0  0  0  0  0
  134.4540  138.6210  147.9340 H   0  0  0  0  0  0  0  0  0  0  0  0
  135.6820  135.4300  147.9940 H   0  0  0  0  0  0  0  0  0  0  0  0
  132.4640  136.9060  147.3460 S   0  0  0  0  0  0  0  0  0  0  0  0
  132.0970  138.1190  147.8410 H   0  0  0  0  0  0  0  0  0  0  0  0
  133.9970  134.3030  147.9360 C   0  0  0  0  0  3  0  0  0  0  0  0
  133.7470  133.6560  149.0870 C   0  0  0  0  0  3  0  0  0  0  0  0
  134.1290  134.1060  150.4420 C   0  0  0  0  0  0  0  0  0  0  0  0
  135.4550  133.9570  150.8740 C   0  0  0  0  0  3  0  0  0  0  0  0
  135.8300  134.3370  152.1680 C   0  0  0  0  0  3  0  0  0  0  0  0
  134.8810  134.8720  153.0390 C   0  0  0  0  0  0  0  0  0  0  0  0
  135.3290  135.3020  154.6420 Cl  0  0  0  0  0  0  0  0  0  0  0  0
  133.5730  135.0600  152.6160 C   0  0  0  0  0  3  0  0  0  0  0  0
  133.2090  134.6990  151.3200 C   0  0  0  0  0  3  0  0  0  0  0  0
  136.3430  137.7970  147.5110 C   0  0  0  0  0  2  0  0  0  0  0  0
  138.5220  138.6850  150.5580 C   0  0  0  0  0  0  0  0  0  0  0  0
  137.7570  137.9400  149.6470 C   0  0  0  0  0  3  0  0  0  0  0  0
  137.1150  138.5650  148.5630 C   0  0  0  0  0  0  0  0  0  0  0  0
  137.2900  139.9490  148.3870 C   0  0  0  0  0  3  0  0  0  0  0  0
  138.0550  140.6990  149.2820 C   0  0  0  0  0  3  0  0  0  0  0  0
  138.6580  140.0670  150.3660 C   0  0  0  0  0  0  0  0  0  0  0  0
  140.3880  137.4640  151.4090 C   0  0  0  0  0  1  0  0  0  0  0  0
  139.1790  138.1690  151.6460 O   0  0  0  0  0  0  0  0  0  0  0  0
  139.4020  140.8030  151.2490 O   0  0  0  0  0  0  0  0  0  0  0  0
  140.0460  141.4060  150.9310 H   0  0  0  0  0  0  0  0  0  0  0  0
  1  4  1  0  0  0  0
  2  6  1  1  0  0  0
  2  1  1  0  0  0  0
  2  3  1  0  0  0  0
  3  8  1  0  0  0  0
  3  5  1  0  0  0  0
  6  7  1  0  0  0  0
  8  9  2  0  0  0  0
  9 10  1  0  0  0  0
 10 11  2  0  0  0  0
 10 16  1  0  0  0  0
 11 12  1  0  0  0  0
 12 13  2  0  0  0  0
 13 14  1  0  0  0  0
 15 13  1  0  0  0  0
 16 15  2  0  0  0  0
 17  1  1  0  0  0  0
 17 20  1  0  0  0  0
 18 25  1  0  0  0  0
 19 18  2  0  0  0  0
 20 19  1  0  0  0  0
 21 20  2  0  0  0  0
 21 22  1  0  0  0  0
 22 23  2  0  0  0  0
 23 18  1  0  0  0  0
 23 26  1  0  0  0  0
 24 25  1  0  0  0  0
 27 26  1  0  0  0  0
M  END
>  <MODEL>
7

>  <REMARK>
 VINA RESULT:    -6.491      9.553     12.051
 INTER + INTRA:         -10.009
 INTER:                  -9.221
 INTRA:                  -0.788
 UNBOUND:                -1.241
  Name = CHEMBL146728
  8 active torsions:
  status: ('A' for Active; 'I' for Inactive)
    1  A    between atoms: C_1  and  O_2
    2  A    between atoms: O_2  and  C_3
    3  A    between atoms: C_5  and  C_6
    4  A    between atoms: C_6  and  N_7
    5  A    between atoms: C_8  and  S_9
    6  A    between atoms: N_10  and  C_11
    7  A    between atoms: C_12  and  C_13
    8  A    between atoms: C_22  and  O_23
                            x       y       z     vdW  Elec       q    Type
                         _______ _______ _______ _____ _____    ______ ____

>  <TORSDO>
F 7

>  <SCORE>
-6.491

>  <RMSD_LB>
9.553

>  <RMSD_UB>
12.051

$$$$
CHEMBL146728
 OpenBabel10172500563D

 27 28  0  0  1  0  0  0  0  0999 V2000
  136.2890  136.3670  146.7210 N   0  0  0  0  0  0  0  0  0  0  0  0
  135.2050  135.5600  146.5230 C   0  0  1  0  0  3  0  0  0  0  0  0
  134.9850  134.5420  147.2890 N   0  0  0  0  0  0  0  0  0  0  0  0
  136.2500  137.2930  146.3910 H   0  0  0  0  0  0  0  0  0  0  0  0
  135.6610  134.3180  147.9690 H   0  0  0  0  0  0  0  0  0  0  0  0
  134.1750  136.0630  145.1940 S   0  0  0  0  0  0  0  0  0  0  0  0
  132.8840  136.1200  145.6180 H   0  0  0  0  0  0  0  0  0  0  0  0
  133.8660  133.7580  147.2110 C   0  0  0  0  0  3  0  0  0  0  0  0
  133.0850  133.4890  148.2710 C   0  0  0  0  0  3  0  0  0  0  0  0
  133.2590  134.0160  149.6410 C   0  0  0  0  0  0  0  0  0  0  0  0
  132.8850  135.3370  149.9280 C   0  0  0  0  0  3  0  0  0  0  0  0
  133.0790  135.8710  151.2080 C   0  0  0  0  0  3  0  0  0  0  0  0
  133.6480  135.0860  152.2100 C   0  0  0  0  0  0  0  0  0  0  0  0
  133.9250  135.7500  153.7710 Cl  0  0  0  0  0  0  0  0  0  0  0  0
  133.9900  133.7660  151.9540 C   0  0  0  0  0  3  0  0  0  0  0  0
  133.7750  133.2320  150.6840 C   0  0  0  0  0  3  0  0  0  0  0  0
  137.4940  135.9250  147.3940 C   0  0  0  0  0  2  0  0  0  0  0  0
  138.3380  138.0550  150.4880 C   0  0  0  0  0  0  0  0  0  0  0  0
  138.3090  137.5960  149.1620 C   0  0  0  0  0  3  0  0  0  0  0  0
  137.6180  136.4190  148.8200 C   0  0  0  0  0  0  0  0  0  0  0  0
  136.9190  135.7340  149.8290 C   0  0  0  0  0  3  0  0  0  0  0  0
  136.9330  136.1850  151.1510 C   0  0  0  0  0  3  0  0  0  0  0  0
  137.6490  137.3340  151.4750 C   0  0  0  0  0  0  0  0  0  0  0  0
  138.9530  140.3230  150.0770 C   0  0  0  0  0  1  0  0  0  0  0  0
  138.9870  139.1820  150.9210 O   0  0  0  0  0  0  0  0  0  0  0  0
  137.6700  137.7740  152.7720 O   0  0  0  0  0  0  0  0  0  0  0  0
  136.9720  137.5470  153.3550 H   0  0  0  0  0  0  0  0  0  0  0  0
  1 17  1  0  0  0  0
  2  6  1  1  0  0  0
  2  1  1  0  0  0  0
  2  3  1  0  0  0  0
  3  5  1  0  0  0  0
  4  1  1  0  0  0  0
  6  7  1  0  0  0  0
  8  3  1  0  0  0  0
  8  9  2  0  0  0  0
  9 10  1  0  0  0  0
 10 11  2  0  0  0  0
 10 16  1  0  0  0  0
 11 12  1  0  0  0  0
 12 13  2  0  0  0  0
 13 14  1  0  0  0  0
 15 13  1  0  0  0  0
 16 15  2  0  0  0  0
 17 20  1  0  0  0  0
 18 25  1  0  0  0  0
 18 23  1  0  0  0  0
 19 18  2  0  0  0  0
 20 19  1  0  0  0  0
 20 21  2  0  0  0  0
 21 22  1  0  0  0  0
 22 23  2  0  0  0  0
 23 26  1  0  0  0  0
 24 25  1  0  0  0  0
 26 27  1  0  0  0  0
M  END
>  <MODEL>
8

>  <REMARK>
 VINA RESULT:    -6.452     10.009     12.479
 INTER + INTRA:          -9.956
 INTER:                  -8.598
 INTRA:                  -1.358
 UNBOUND:                -1.241
  Name = CHEMBL146728
  8 active torsions:
  status: ('A' for Active; 'I' for Inactive)
    1  A    between atoms: C_1  and  O_2
    2  A    between atoms: O_2  and  C_3
    3  A    between atoms: C_5  and  C_6
    4  A    between atoms: C_6  and  N_7
    5  A    between atoms: C_8  and  S_9
    6  A    between atoms: N_10  and  C_11
    7  A    between atoms: C_12  and  C_13
    8  A    between atoms: C_22  and  O_23
                            x       y       z     vdW  Elec       q    Type
                         _______ _______ _______ _____ _____    ______ ____

>  <TORSDO>
F 7

>  <SCORE>
-6.452

>  <RMSD_LB>
10.009

>  <RMSD_UB>
12.479

$$$$
CHEMBL146728
 OpenBabel10172500563D

 27 28  0  0  1  0  0  0  0  0999 V2000
  144.8540  139.2510  148.2330 N   0  0  0  0  0  0  0  0  0  0  0  0
  145.6100  140.3880  148.2070 C   0  0  1  0  0  3  0  0  0  0  0  0
  145.6440  141.1860  149.2240 N   0  0  0  0  0  0  0  0  0  0  0  0
  145.1070  138.5080  147.6390 H   0  0  0  0  0  0  0  0  0  0  0  0
  145.0500  140.9930  149.9860 H   0  0  0  0  0  0  0  0  0  0  0  0
  146.5130  140.6120  146.7200 S   0  0  0  0  0  0  0  0  0  0  0  0
  147.8380  140.4200  146.9610 H   0  0  0  0  0  0  0  0  0  0  0  0
  146.4580  142.2840  149.3050 C   0  0  0  0  0  3  0  0  0  0  0  0
  147.1710  142.5870  150.4030 C   0  0  0  0  0  3  0  0  0  0  0  0
  147.2420  141.7920  151.6460 C   0  0  0  0  0  0  0  0  0  0  0  0
  148.3050  140.8980  151.8380 C   0  0  0  0  0  3  0  0  0  0  0  0
  148.3700  140.1040  152.9900 C   0  0  0  0  0  3  0  0  0  0  0  0
  147.3720  140.2010  153.9590 C   0  0  0  0  0  0  0  0  0  0  0  0
  147.4260  139.1990  155.3540 Cl  0  0  0  0  0  0  0  0  0  0  0  0
  146.3320  141.1060  153.8030 C   0  0  0  0  0  3  0  0  0  0  0  0
  146.2830  141.9090  152.6640 C   0  0  0  0  0  3  0  0  0  0  0  0
  143.6980  139.0850  149.0900 C   0  0  0  0  0  2  0  0  0  0  0  0
  145.5440  137.4260  152.0330 C   0  0  0  0  0  0  0  0  0  0  0  0
  145.2940  137.9810  150.7680 C   0  0  0  0  0  3  0  0  0  0  0  0
  144.0030  138.4110  150.4110 C   0  0  0  0  0  0  0  0  0  0  0  0
  142.9750  138.3120  151.3650 C   0  0  0  0  0  3  0  0  0  0  0  0
  143.2130  137.7690  152.6290 C   0  0  0  0  0  3  0  0  0  0  0  0
  144.4900  137.3210  152.9520 C   0  0  0  0  0  0  0  0  0  0  0  0
  147.7890  136.8150  151.5040 C   0  0  0  0  0  1  0  0  0  0  0  0
  146.7620  136.9740  152.4700 O   0  0  0  0  0  0  0  0  0  0  0  0
  144.7240  136.7820  154.1890 O   0  0  0  0  0  0  0  0  0  0  0  0
  144.0720  136.2470  154.5980 H   0  0  0  0  0  0  0  0  0  0  0  0
  1 17  1  0  0  0  0
  2  6  1  1  0  0  0
  2  1  1  0  0  0  0
  2  3  1  0  0  0  0
  3  8  1  0  0  0  0
  3  5  1  0  0  0  0
  4  1  1  0  0  0  0
  6  7  1  0  0  0  0
  8  9  2  0  0  0  0
  9 10  1  0  0  0  0
 10 11  2  0  0  0  0
 10 16  1  0  0  0  0
 11 12  1  0  0  0  0
 12 13  2  0  0  0  0
 13 14  1  0  0  0  0
 15 13  1  0  0  0  0
 16 15  2  0  0  0  0
 17 20  1  0  0  0  0
 18 25  1  0  0  0  0
 18 23  1  0  0  0  0
 19 18  2  0  0  0  0
 20 19  1  0  0  0  0
 20 21  2  0  0  0  0
 21 22  1  0  0  0  0
 22 23  2  0  0  0  0
 23 26  1  0  0  0  0
 24 25  1  0  0  0  0
 26 27  1  0  0  0  0
M  END
>  <MODEL>
9

>  <REMARK>
 VINA RESULT:    -6.320      1.855      2.856
 INTER + INTRA:          -9.779
 INTER:                  -8.537
 INTRA:                  -1.241
 UNBOUND:                -1.241
  Name = CHEMBL146728
  8 active torsions:
  status: ('A' for Active; 'I' for Inactive)
    1  A    between atoms: C_1  and  O_2
    2  A    between atoms: O_2  and  C_3
    3  A    between atoms: C_5  and  C_6
    4  A    between atoms: C_6  and  N_7
    5  A    between atoms: C_8  and  S_9
    6  A    between atoms: N_10  and  C_11
    7  A    between atoms: C_12  and  C_13
    8  A    between atoms: C_22  and  O_23
                            x       y       z     vdW  Elec       q    Type
                         _______ _______ _______ _____ _____    ______ ____

>  <TORSDO>
F 7

>  <SCORE>
-6.320

>  <RMSD_LB>
1.855

>  <RMSD_UB>
2.856

$$$$
