CHEMBL4536187
 OpenBabel10162523523D

 22 23  0  0  0  0  0  0  0  0999 V2000
  142.8880  138.3580  154.1790 C   0  0  0  0  0  2  0  0  0  0  0  0
  139.0720  138.3580  153.7910 C   0  0  0  0  0  0  0  0  0  0  0  0
  140.3520  138.4870  154.3490 C   0  0  0  0  0  3  0  0  0  0  0  0
  141.5050  138.1660  153.6030 C   0  0  0  0  0  0  0  0  0  0  0  0
  141.3510  137.7310  152.2810 C   0  0  0  0  0  3  0  0  0  0  0  0
  140.0820  137.5950  151.7150 C   0  0  0  0  0  3  0  0  0  0  0  0
  138.9540  137.9050  152.4700 C   0  0  0  0  0  0  0  0  0  0  0  0
  137.5700  137.8880  155.5860 C   0  0  0  0  0  1  0  0  0  0  0  0
  137.8970  138.6530  154.4340 O   0  0  0  0  0  0  0  0  0  0  0  0
  137.7080  137.7700  151.9150 O   0  0  0  0  0  0  0  0  0  0  0  0
  137.0160  137.3760  152.4080 H   0  0  0  0  0  0  0  0  0  0  0  0
  143.4860  139.6140  153.7630 N   0  0  0  0  0  0  0  0  0  0  0  0
  144.4900  139.6170  152.8210 C   0  0  0  0  0  0  0  0  0  0  0  0
  145.0200  138.6050  152.3890 O   0  0  0  0  0  0  0  0  0  0  0  0
  144.8180  140.8920  152.4270 N   0  0  0  0  0  0  0  0  0  0  0  0
  143.1740  140.4620  154.1520 H   0  0  0  0  0  0  0  0  0  0  0  0
  144.2910  141.6530  152.7610 H   0  0  0  0  0  0  0  0  0  0  0  0
  145.9320  141.1340  151.5240 C   0  0  0  0  0  3  0  0  0  0  0  0
  147.2250  141.4940  152.2570 C   0  0  0  0  0  2  0  0  0  0  0  0
  148.0580  142.2840  151.2480 C   0  0  0  0  0  2  0  0  0  0  0  0
  147.1070  142.6900  150.1250 C   0  0  0  0  0  2  0  0  0  0  0  0
  145.7090  142.3460  150.6260 C   0  0  0  0  0  2  0  0  0  0  0  0
  2  3  1  0  0  0  0
  2  9  1  0  0  0  0
  4  1  1  0  0  0  0
  4  3  2  0  0  0  0
  5  4  1  0  0  0  0
  6  5  2  0  0  0  0
  6  7  1  0  0  0  0
  7  2  2  0  0  0  0
  9  8  1  0  0  0  0
 10 11  1  0  0  0  0
 10  7  1  0  0  0  0
 12 16  1  0  0  0  0
 12  1  1  0  0  0  0
 13 12  1  0  0  0  0
 14 13  2  0  0  0  0
 15 17  1  0  0  0  0
 15 13  1  0  0  0  0
 18 19  1  0  0  0  0
 18 15  1  0  0  0  0
 20 19  1  0  0  0  0
 21 22  1  0  0  0  0
 21 20  1  0  0  0  0
 22 18  1  0  0  0  0
M  END
>  <MODEL>
1

>  <REMARK>
 VINA RESULT:    -7.011      0.000      0.000
 INTER + INTRA:          -9.185
 INTER:                  -8.768
 INTRA:                  -0.417
 UNBOUND:                -0.330
  Name = CHEMBL4536187
  6 active torsions:
  status: ('A' for Active; 'I' for Inactive)
    1  A    between atoms: C_1  and  O_2
    2  A    between atoms: O_2  and  C_3
    3  A    between atoms: C_5  and  C_6
    4  A    between atoms: C_6  and  N_7
    5  A    between atoms: N_10  and  C_11
    6  A    between atoms: C_18  and  O_19
                            x       y       z     vdW  Elec       q    Type
                         _______ _______ _______ _____ _____    ______ ____

>  <TORSDO>
F 5

>  <SCORE>
-7.011

>  <RMSD_LB>
0.000

>  <RMSD_UB>
0.000

$$$$
CHEMBL4536187
 OpenBabel10162523523D

 22 23  0  0  0  0  0  0  0  0999 V2000
  132.6470  134.7940  151.1110 C   0  0  0  0  0  2  0  0  0  0  0  0
  135.3220  133.9980  148.4800 C   0  0  0  0  0  0  0  0  0  0  0  0
  134.6950  134.4970  149.6320 C   0  0  0  0  0  3  0  0  0  0  0  0
  133.3150  134.3100  149.8460 C   0  0  0  0  0  0  0  0  0  0  0  0
  132.5760  133.5970  148.8930 C   0  0  0  0  0  3  0  0  0  0  0  0
  133.1870  133.0990  147.7410 C   0  0  0  0  0  3  0  0  0  0  0  0
  134.5490  133.3030  147.5400 C   0  0  0  0  0  0  0  0  0  0  0  0
  137.1440  135.4260  147.8970 C   0  0  0  0  0  1  0  0  0  0  0  0
  136.6560  134.1240  148.1890 O   0  0  0  0  0  0  0  0  0  0  0  0
  135.1490  132.8150  146.4080 O   0  0  0  0  0  0  0  0  0  0  0  0
  134.6810  132.8060  145.5960 H   0  0  0  0  0  0  0  0  0  0  0  0
  133.3700  134.3900  152.3030 N   0  0  0  0  0  0  0  0  0  0  0  0
  133.9390  135.3430  153.1180 C   0  0  0  0  0  0  0  0  0  0  0  0
  133.9920  136.5310  152.8400 O   0  0  0  0  0  0  0  0  0  0  0  0
  134.4320  134.7970  154.2780 N   0  0  0  0  0  0  0  0  0  0  0  0
  133.4530  133.4360  152.5300 H   0  0  0  0  0  0  0  0  0  0  0  0
  134.2790  133.8430  154.4670 H   0  0  0  0  0  0  0  0  0  0  0  0
  135.1760  135.6060  155.2300 C   0  0  0  0  0  3  0  0  0  0  0  0
  136.6710  135.6730  154.9130 C   0  0  0  0  0  2  0  0  0  0  0  0
  137.3550  135.9890  156.2440 C   0  0  0  0  0  2  0  0  0  0  0  0
  136.3230  135.7180  157.3360 C   0  0  0  0  0  2  0  0  0  0  0  0
  135.1600  135.0210  156.6390 C   0  0  0  0  0  2  0  0  0  0  0  0
  1 12  1  0  0  0  0
  2  3  1  0  0  0  0
  3  4  2  0  0  0  0
  4  1  1  0  0  0  0
  5  4  1  0  0  0  0
  6  5  2  0  0  0  0
  7  6  1  0  0  0  0
  7  2  2  0  0  0  0
  8  9  1  0  0  0  0
  9  2  1  0  0  0  0
 10  7  1  0  0  0  0
 11 10  1  0  0  0  0
 12 16  1  0  0  0  0
 12 13  1  0  0  0  0
 13 15  1  0  0  0  0
 14 13  2  0  0  0  0
 15 17  1  0  0  0  0
 15 18  1  0  0  0  0
 18 22  1  0  0  0  0
 19 18  1  0  0  0  0
 19 20  1  0  0  0  0
 20 21  1  0  0  0  0
 22 21  1  0  0  0  0
M  END
>  <MODEL>
2

>  <REMARK>
 VINA RESULT:    -6.774      8.542     10.862
 INTER + INTRA:          -8.886
 INTER:                  -8.477
 INTRA:                  -0.409
 UNBOUND:                -0.330
  Name = CHEMBL4536187
  6 active torsions:
  status: ('A' for Active; 'I' for Inactive)
    1  A    between atoms: C_1  and  O_2
    2  A    between atoms: O_2  and  C_3
    3  A    between atoms: C_5  and  C_6
    4  A    between atoms: C_6  and  N_7
    5  A    between atoms: N_10  and  C_11
    6  A    between atoms: C_18  and  O_19
                            x       y       z     vdW  Elec       q    Type
                         _______ _______ _______ _____ _____    ______ ____

>  <TORSDO>
F 5

>  <SCORE>
-6.774

>  <RMSD_LB>
8.542

>  <RMSD_UB>
10.862

$$$$
CHEMBL4536187
 OpenBabel10162523523D

 22 23  0  0  0  0  0  0  0  0999 V2000
  133.2180  135.8460  147.4180 C   0  0  0  0  0  2  0  0  0  0  0  0
  134.0580  135.6270  151.1540 C   0  0  0  0  0  0  0  0  0  0  0  0
  133.9780  136.0930  149.8330 C   0  0  0  0  0  3  0  0  0  0  0  0
  133.3580  135.3240  148.8280 C   0  0  0  0  0  0  0  0  0  0  0  0
  132.8010  134.0860  149.1750 C   0  0  0  0  0  3  0  0  0  0  0  0
  132.8770  133.6090  150.4840 C   0  0  0  0  0  3  0  0  0  0  0  0
  133.5040  134.3760  151.4620 C   0  0  0  0  0  0  0  0  0  0  0  0
  136.0440  136.2160  152.3400 C   0  0  0  0  0  1  0  0  0  0  0  0
  134.6330  136.3050  152.1980 O   0  0  0  0  0  0  0  0  0  0  0  0
  133.5800  133.9070  152.7480 O   0  0  0  0  0  0  0  0  0  0  0  0
  132.9180  134.1360  153.3700 H   0  0  0  0  0  0  0  0  0  0  0  0
  133.4900  134.8240  146.4240 N   0  0  0  0  0  0  0  0  0  0  0  0
  134.7820  134.6040  146.0020 C   0  0  0  0  0  0  0  0  0  0  0  0
  135.7290  135.3090  146.3140 O   0  0  0  0  0  0  0  0  0  0  0  0
  134.8740  133.4960  145.1940 N   0  0  0  0  0  0  0  0  0  0  0  0
  132.7530  134.2880  146.0530 H   0  0  0  0  0  0  0  0  0  0  0  0
  134.0810  132.9320  145.0530 H   0  0  0  0  0  0  0  0  0  0  0  0
  136.1270  133.1450  144.5430 C   0  0  0  0  0  3  0  0  0  0  0  0
  136.3640  133.9240  143.2480 C   0  0  0  0  0  2  0  0  0  0  0  0
  137.3130  133.0580  142.4210 C   0  0  0  0  0  2  0  0  0  0  0  0
  137.2950  131.6690  143.0550 C   0  0  0  0  0  2  0  0  0  0  0  0
  136.1590  131.6960  144.0710 C   0  0  0  0  0  2  0  0  0  0  0  0
  1  4  1  0  0  0  0
  2  7  1  0  0  0  0
  2  9  1  0  0  0  0
  3  2  2  0  0  0  0
  4  5  2  0  0  0  0
  4  3  1  0  0  0  0
  5  6  1  0  0  0  0
  6  7  2  0  0  0  0
  7 10  1  0  0  0  0
  9  8  1  0  0  0  0
 10 11  1  0  0  0  0
 12  1  1  0  0  0  0
 13 14  2  0  0  0  0
 13 12  1  0  0  0  0
 15 13  1  0  0  0  0
 16 12  1  0  0  0  0
 17 15  1  0  0  0  0
 18 15  1  0  0  0  0
 19 18  1  0  0  0  0
 20 21  1  0  0  0  0
 20 19  1  0  0  0  0
 21 22  1  0  0  0  0
 22 18  1  0  0  0  0
M  END
>  <MODEL>
3

>  <REMARK>
 VINA RESULT:    -6.715      9.113     11.627
 INTER + INTRA:          -8.812
 INTER:                  -8.443
 INTRA:                  -0.368
 UNBOUND:                -0.330
  Name = CHEMBL4536187
  6 active torsions:
  status: ('A' for Active; 'I' for Inactive)
    1  A    between atoms: C_1  and  O_2
    2  A    between atoms: O_2  and  C_3
    3  A    between atoms: C_5  and  C_6
    4  A    between atoms: C_6  and  N_7
    5  A    between atoms: N_10  and  C_11
    6  A    between atoms: C_18  and  O_19
                            x       y       z     vdW  Elec       q    Type
                         _______ _______ _______ _____ _____    ______ ____

>  <TORSDO>
F 5

>  <SCORE>
-6.715

>  <RMSD_LB>
9.113

>  <RMSD_UB>
11.627

$$$$
CHEMBL4536187
 OpenBabel10162523523D

 22 23  0  0  0  0  0  0  0  0999 V2000
  142.7050  138.4800  154.0840 C   0  0  0  0  0  2  0  0  0  0  0  0
  139.8560  137.7860  151.6110 C   0  0  0  0  0  0  0  0  0  0  0  0
  140.5510  138.1910  152.7600 C   0  0  0  0  0  3  0  0  0  0  0  0
  141.9430  137.9940  152.8740 C   0  0  0  0  0  0  0  0  0  0  0  0
  142.6280  137.3980  151.8080 C   0  0  0  0  0  3  0  0  0  0  0  0
  141.9470  136.9870  150.6610 C   0  0  0  0  0  3  0  0  0  0  0  0
  140.5710  137.1790  150.5690 C   0  0  0  0  0  0  0  0  0  0  0  0
  137.6280  137.2620  152.2880 C   0  0  0  0  0  1  0  0  0  0  0  0
  138.5090  137.9430  151.4060 O   0  0  0  0  0  0  0  0  0  0  0  0
  139.9020  136.7740  149.4430 O   0  0  0  0  0  0  0  0  0  0  0  0
  138.9740  136.8880  149.3830 H   0  0  0  0  0  0  0  0  0  0  0  0
  143.5360  139.6310  153.7820 N   0  0  0  0  0  0  0  0  0  0  0  0
  144.8900  139.4690  153.5930 C   0  0  0  0  0  0  0  0  0  0  0  0
  145.4840  138.4200  153.7890 O   0  0  0  0  0  0  0  0  0  0  0  0
  145.4870  140.6260  153.1530 N   0  0  0  0  0  0  0  0  0  0  0  0
  143.1330  140.5260  153.7120 H   0  0  0  0  0  0  0  0  0  0  0  0
  144.9300  141.4080  152.9400 H   0  0  0  0  0  0  0  0  0  0  0  0
  146.9310  140.7120  152.9970 C   0  0  0  0  0  3  0  0  0  0  0  0
  147.6130  141.4310  154.1620 C   0  0  0  0  0  2  0  0  0  0  0  0
  148.9270  141.9680  153.5940 C   0  0  0  0  0  2  0  0  0  0  0  0
  148.8040  141.8950  152.0740 C   0  0  0  0  0  2  0  0  0  0  0  0
  147.3440  141.5560  151.7960 C   0  0  0  0  0  2  0  0  0  0  0  0
  2  3  1  0  0  0  0
  3  4  2  0  0  0  0
  4  1  1  0  0  0  0
  5  4  1  0  0  0  0
  6  5  2  0  0  0  0
  7  6  1  0  0  0  0
  7  2  2  0  0  0  0
  9  2  1  0  0  0  0
  9  8  1  0  0  0  0
 10  7  1  0  0  0  0
 11 10  1  0  0  0  0
 12  1  1  0  0  0  0
 13 12  1  0  0  0  0
 13 14  2  0  0  0  0
 15 13  1  0  0  0  0
 16 12  1  0  0  0  0
 17 15  1  0  0  0  0
 18 15  1  0  0  0  0
 18 19  1  0  0  0  0
 20 19  1  0  0  0  0
 21 20  1  0  0  0  0
 22 21  1  0  0  0  0
 22 18  1  0  0  0  0
M  END
>  <MODEL>
4

>  <REMARK>
 VINA RESULT:    -6.491      1.591      2.122
 INTER + INTRA:          -8.528
 INTER:                  -8.151
 INTRA:                  -0.377
 UNBOUND:                -0.330
  Name = CHEMBL4536187
  6 active torsions:
  status: ('A' for Active; 'I' for Inactive)
    1  A    between atoms: C_1  and  O_2
    2  A    between atoms: O_2  and  C_3
    3  A    between atoms: C_5  and  C_6
    4  A    between atoms: C_6  and  N_7
    5  A    between atoms: N_10  and  C_11
    6  A    between atoms: C_18  and  O_19
                            x       y       z     vdW  Elec       q    Type
                         _______ _______ _______ _____ _____    ______ ____

>  <TORSDO>
F 5

>  <SCORE>
-6.491

>  <RMSD_LB>
1.591

>  <RMSD_UB>
2.122

$$$$
CHEMBL4536187
 OpenBabel10162523523D

 22 23  0  0  0  0  0  0  0  0999 V2000
  134.5620  132.3700  147.6900 C   0  0  0  0  0  2  0  0  0  0  0  0
  133.0220  135.7710  148.5660 C   0  0  0  0  0  0  0  0  0  0  0  0
  133.5700  134.7080  147.8340 C   0  0  0  0  0  3  0  0  0  0  0  0
  134.0240  133.5400  148.4790 C   0  0  0  0  0  0  0  0  0  0  0  0
  133.9030  133.4490  149.8710 C   0  0  0  0  0  3  0  0  0  0  0  0
  133.3620  134.5020  150.6120 C   0  0  0  0  0  3  0  0  0  0  0  0
  132.9290  135.6530  149.9600 C   0  0  0  0  0  0  0  0  0  0  0  0
  132.7280  137.1400  146.6330 C   0  0  0  0  0  1  0  0  0  0  0  0
  132.5470  136.9400  148.0270 O   0  0  0  0  0  0  0  0  0  0  0  0
  132.4000  136.6870  150.6870 O   0  0  0  0  0  0  0  0  0  0  0  0
  132.6300  136.7930  151.5890 H   0  0  0  0  0  0  0  0  0  0  0  0
  135.7150  132.7320  146.8870 N   0  0  0  0  0  0  0  0  0  0  0  0
  135.6030  132.8030  145.5170 C   0  0  0  0  0  0  0  0  0  0  0  0
  134.6110  132.4510  144.8960 O   0  0  0  0  0  0  0  0  0  0  0  0
  136.7360  133.3200  144.9360 N   0  0  0  0  0  0  0  0  0  0  0  0
  136.5770  132.9280  147.3210 H   0  0  0  0  0  0  0  0  0  0  0  0
  137.4630  133.6560  145.5080 H   0  0  0  0  0  0  0  0  0  0  0  0
  136.8780  133.3770  143.4900 C   0  0  0  0  0  3  0  0  0  0  0  0
  137.3060  132.0410  142.8810 C   0  0  0  0  0  2  0  0  0  0  0  0
  137.9830  132.3970  141.5570 C   0  0  0  0  0  2  0  0  0  0  0  0
  138.2750  133.8950  141.6090 C   0  0  0  0  0  2  0  0  0  0  0  0
  137.9920  134.3200  143.0450 C   0  0  0  0  0  2  0  0  0  0  0  0
  1  4  1  0  0  0  0
  2  7  1  0  0  0  0
  3  4  1  0  0  0  0
  3  2  2  0  0  0  0
  4  5  2  0  0  0  0
  5  6  1  0  0  0  0
  7  6  2  0  0  0  0
  7 10  1  0  0  0  0
  8  9  1  0  0  0  0
  9  2  1  0  0  0  0
 10 11  1  0  0  0  0
 12 16  1  0  0  0  0
 12  1  1  0  0  0  0
 13 12  1  0  0  0  0
 14 13  2  0  0  0  0
 15 17  1  0  0  0  0
 15 13  1  0  0  0  0
 18 15  1  0  0  0  0
 19 18  1  0  0  0  0
 20 21  1  0  0  0  0
 20 19  1  0  0  0  0
 21 22  1  0  0  0  0
 22 18  1  0  0  0  0
M  END
>  <MODEL>
5

>  <REMARK>
 VINA RESULT:    -6.484     11.073     11.953
 INTER + INTRA:          -8.519
 INTER:                  -8.172
 INTRA:                  -0.347
 UNBOUND:                -0.330
  Name = CHEMBL4536187
  6 active torsions:
  status: ('A' for Active; 'I' for Inactive)
    1  A    between atoms: C_1  and  O_2
    2  A    between atoms: O_2  and  C_3
    3  A    between atoms: C_5  and  C_6
    4  A    between atoms: C_6  and  N_7
    5  A    between atoms: N_10  and  C_11
    6  A    between atoms: C_18  and  O_19
                            x       y       z     vdW  Elec       q    Type
                         _______ _______ _______ _____ _____    ______ ____

>  <TORSDO>
F 5

>  <SCORE>
-6.484

>  <RMSD_LB>
11.073

>  <RMSD_UB>
11.953

$$$$
CHEMBL4536187
 OpenBabel10162523523D

 22 23  0  0  0  0  0  0  0  0999 V2000
  139.1720  138.8420  153.9700 C   0  0  0  0  0  2  0  0  0  0  0  0
  142.5670  137.5960  152.6930 C   0  0  0  0  0  0  0  0  0  0  0  0
  141.5820  138.1680  153.5120 C   0  0  0  0  0  3  0  0  0  0  0  0
  140.2480  138.2820  153.0710 C   0  0  0  0  0  0  0  0  0  0  0  0
  139.9150  137.7960  151.8000 C   0  0  0  0  0  3  0  0  0  0  0  0
  140.8870  137.2290  150.9740 C   0  0  0  0  0  3  0  0  0  0  0  0
  142.2030  137.1350  151.4210 C   0  0  0  0  0  0  0  0  0  0  0  0
  144.6710  138.6100  153.1870 C   0  0  0  0  0  1  0  0  0  0  0  0
  143.8850  137.4360  153.0380 O   0  0  0  0  0  0  0  0  0  0  0  0
  143.1570  136.5790  150.6100 O   0  0  0  0  0  0  0  0  0  0  0  0
  144.0380  136.4890  150.9160 H   0  0  0  0  0  0  0  0  0  0  0  0
  138.9260  137.9970  155.1250 N   0  0  0  0  0  0  0  0  0  0  0  0
  137.7590  138.1360  155.8410 C   0  0  0  0  0  0  0  0  0  0  0  0
  136.9470  139.0290  155.6510 O   0  0  0  0  0  0  0  0  0  0  0  0
  137.6180  137.1500  156.7880 N   0  0  0  0  0  0  0  0  0  0  0  0
  139.5920  137.3240  155.3940 H   0  0  0  0  0  0  0  0  0  0  0  0
  138.2760  136.4190  156.8260 H   0  0  0  0  0  0  0  0  0  0  0  0
  136.5140  137.1710  157.7340 C   0  0  0  0  0  3  0  0  0  0  0  0
  136.8390  137.9470  159.0110 C   0  0  0  0  0  2  0  0  0  0  0  0
  135.9050  137.3800  160.0800 C   0  0  0  0  0  2  0  0  0  0  0  0
  135.3550  136.0690  159.5230 C   0  0  0  0  0  2  0  0  0  0  0  0
  136.1680  135.7840  158.2650 C   0  0  0  0  0  2  0  0  0  0  0  0
  1 12  1  0  0  0  0
  2  9  1  0  0  0  0
  2  3  1  0  0  0  0
  4  3  2  0  0  0  0
  4  1  1  0  0  0  0
  5  4  1  0  0  0  0
  6  7  1  0  0  0  0
  6  5  2  0  0  0  0
  7  2  2  0  0  0  0
  9  8  1  0  0  0  0
 10 11  1  0  0  0  0
 10  7  1  0  0  0  0
 12 16  1  0  0  0  0
 12 13  1  0  0  0  0
 13 15  1  0  0  0  0
 14 13  2  0  0  0  0
 15 17  1  0  0  0  0
 15 18  1  0  0  0  0
 18 22  1  0  0  0  0
 18 19  1  0  0  0  0
 19 20  1  0  0  0  0
 21 20  1  0  0  0  0
 22 21  1  0  0  0  0
M  END
>  <MODEL>
6

>  <REMARK>
 VINA RESULT:    -6.375      3.362      8.710
 INTER + INTRA:          -8.382
 INTER:                  -8.070
 INTRA:                  -0.312
 UNBOUND:                -0.330
  Name = CHEMBL4536187
  6 active torsions:
  status: ('A' for Active; 'I' for Inactive)
    1  A    between atoms: C_1  and  O_2
    2  A    between atoms: O_2  and  C_3
    3  A    between atoms: C_5  and  C_6
    4  A    between atoms: C_6  and  N_7
    5  A    between atoms: N_10  and  C_11
    6  A    between atoms: C_18  and  O_19
                            x       y       z     vdW  Elec       q    Type
                         _______ _______ _______ _____ _____    ______ ____

>  <TORSDO>
F 5

>  <SCORE>
-6.375

>  <RMSD_LB>
3.362

>  <RMSD_UB>
8.710

$$$$
CHEMBL4536187
 OpenBabel10162523523D

 22 23  0  0  0  0  0  0  0  0999 V2000
  141.7240  137.0870  150.4760 C   0  0  0  0  0  2  0  0  0  0  0  0
  140.0520  138.3740  153.6790 C   0  0  0  0  0  0  0  0  0  0  0  0
  141.0320  137.9840  152.7540 C   0  0  0  0  0  3  0  0  0  0  0  0
  140.6740  137.4540  151.4980 C   0  0  0  0  0  0  0  0  0  0  0  0
  139.3150  137.3380  151.1780 C   0  0  0  0  0  3  0  0  0  0  0  0
  138.3310  137.7190  152.0920 C   0  0  0  0  0  3  0  0  0  0  0  0
  138.7010  138.2300  153.3320 C   0  0  0  0  0  0  0  0  0  0  0  0
  140.9230  138.0650  155.8800 C   0  0  0  0  0  1  0  0  0  0  0  0
  140.3030  138.9060  154.9180 O   0  0  0  0  0  0  0  0  0  0  0  0
  137.7350  138.6030  154.2300 O   0  0  0  0  0  0  0  0  0  0  0  0
  137.9590  139.1390  154.9640 H   0  0  0  0  0  0  0  0  0  0  0  0
  142.9760  137.7870  150.6990 N   0  0  0  0  0  0  0  0  0  0  0  0
  143.1530  139.0550  150.1950 C   0  0  0  0  0  0  0  0  0  0  0  0
  142.3620  139.6050  149.4430 O   0  0  0  0  0  0  0  0  0  0  0  0
  144.3200  139.6260  150.6420 N   0  0  0  0  0  0  0  0  0  0  0  0
  143.6970  137.3560  151.2120 H   0  0  0  0  0  0  0  0  0  0  0  0
  144.8650  139.1520  151.3100 H   0  0  0  0  0  0  0  0  0  0  0  0
  144.7620  140.9190  150.1440 C   0  0  0  0  0  3  0  0  0  0  0  0
  146.0360  140.8280  149.3030 C   0  0  0  0  0  2  0  0  0  0  0  0
  146.6780  142.2130  149.3880 C   0  0  0  0  0  2  0  0  0  0  0  0
  146.0000  142.9340  150.5500 C   0  0  0  0  0  2  0  0  0  0  0  0
  145.1660  141.8740  151.2620 C   0  0  0  0  0  2  0  0  0  0  0  0
  1 12  1  0  0  0  0
  1  4  1  0  0  0  0
  2  9  1  0  0  0  0
  3  2  2  0  0  0  0
  4  3  1  0  0  0  0
  5  4  2  0  0  0  0
  5  6  1  0  0  0  0
  6  7  2  0  0  0  0
  7  2  1  0  0  0  0
  7 10  1  0  0  0  0
  9  8  1  0  0  0  0
 10 11  1  0  0  0  0
 12 16  1  0  0  0  0
 13 15  1  0  0  0  0
 13 12  1  0  0  0  0
 14 13  2  0  0  0  0
 15 17  1  0  0  0  0
 18 15  1  0  0  0  0
 18 22  1  0  0  0  0
 19 20  1  0  0  0  0
 19 18  1  0  0  0  0
 20 21  1  0  0  0  0
 21 22  1  0  0  0  0
M  END
>  <MODEL>
7

>  <REMARK>
 VINA RESULT:    -6.371      1.984      2.566
 INTER + INTRA:          -8.376
 INTER:                  -8.000
 INTRA:                  -0.376
 UNBOUND:                -0.330
  Name = CHEMBL4536187
  6 active torsions:
  status: ('A' for Active; 'I' for Inactive)
    1  A    between atoms: C_1  and  O_2
    2  A    between atoms: O_2  and  C_3
    3  A    between atoms: C_5  and  C_6
    4  A    between atoms: C_6  and  N_7
    5  A    between atoms: N_10  and  C_11
    6  A    between atoms: C_18  and  O_19
                            x       y       z     vdW  Elec       q    Type
                         _______ _______ _______ _____ _____    ______ ____

>  <TORSDO>
F 5

>  <SCORE>
-6.371

>  <RMSD_LB>
1.984

>  <RMSD_UB>
2.566

$$$$
CHEMBL4536187
 OpenBabel10162523523D

 22 23  0  0  0  0  0  0  0  0999 V2000
  139.2590  137.4510  150.7120 C   0  0  0  0  0  2  0  0  0  0  0  0
  139.8130  138.4010  154.3870 C   0  0  0  0  0  0  0  0  0  0  0  0
  139.1870  138.1570  153.1560 C   0  0  0  0  0  3  0  0  0  0  0  0
  139.9340  137.7720  152.0240 C   0  0  0  0  0  0  0  0  0  0  0  0
  141.3210  137.6180  152.1540 C   0  0  0  0  0  3  0  0  0  0  0  0
  141.9560  137.8620  153.3730 C   0  0  0  0  0  3  0  0  0  0  0  0
  141.2040  138.2530  154.4770 C   0  0  0  0  0  0  0  0  0  0  0  0
  137.8990  138.1910  155.7980 C   0  0  0  0  0  1  0  0  0  0  0  0
  139.1700  138.7710  155.5410 O   0  0  0  0  0  0  0  0  0  0  0  0
  141.8280  138.4930  155.6740 O   0  0  0  0  0  0  0  0  0  0  0  0
  141.3300  138.7860  156.4110 H   0  0  0  0  0  0  0  0  0  0  0  0
  137.8170  137.3570  150.8460 N   0  0  0  0  0  0  0  0  0  0  0  0
  137.1560  136.2390  150.3880 C   0  0  0  0  0  0  0  0  0  0  0  0
  137.6910  135.3490  149.7450 O   0  0  0  0  0  0  0  0  0  0  0  0
  135.8300  136.2450  150.7470 N   0  0  0  0  0  0  0  0  0  0  0  0
  137.3110  138.0900  151.2640 H   0  0  0  0  0  0  0  0  0  0  0  0
  135.4910  136.9580  151.3350 H   0  0  0  0  0  0  0  0  0  0  0  0
  134.9200  135.2160  150.2700 C   0  0  0  0  0  3  0  0  0  0  0  0
  133.4580  135.6650  150.2770 C   0  0  0  0  0  2  0  0  0  0  0  0
  132.6380  134.3770  150.3620 C   0  0  0  0  0  2  0  0  0  0  0  0
  133.6060  133.2740  150.7850 C   0  0  0  0  0  2  0  0  0  0  0  0
  134.8960  133.9870  151.1740 C   0  0  0  0  0  2  0  0  0  0  0  0
  1 12  1  0  0  0  0
  1  4  1  0  0  0  0
  2  7  1  0  0  0  0
  2  9  1  0  0  0  0
  3  2  2  0  0  0  0
  4  5  2  0  0  0  0
  4  3  1  0  0  0  0
  5  6  1  0  0  0  0
  6  7  2  0  0  0  0
  7 10  1  0  0  0  0
  9  8  1  0  0  0  0
 10 11  1  0  0  0  0
 12 16  1  0  0  0  0
 13 15  1  0  0  0  0
 13 12  1  0  0  0  0
 14 13  2  0  0  0  0
 15 17  1  0  0  0  0
 18 19  1  0  0  0  0
 18 15  1  0  0  0  0
 18 22  1  0  0  0  0
 19 20  1  0  0  0  0
 20 21  1  0  0  0  0
 21 22  1  0  0  0  0
M  END
>  <MODEL>
8

>  <REMARK>
 VINA RESULT:    -6.280      4.551      8.954
 INTER + INTRA:          -8.261
 INTER:                  -7.902
 INTRA:                  -0.360
 UNBOUND:                -0.330
  Name = CHEMBL4536187
  6 active torsions:
  status: ('A' for Active; 'I' for Inactive)
    1  A    between atoms: C_1  and  O_2
    2  A    between atoms: O_2  and  C_3
    3  A    between atoms: C_5  and  C_6
    4  A    between atoms: C_6  and  N_7
    5  A    between atoms: N_10  and  C_11
    6  A    between atoms: C_18  and  O_19
                            x       y       z     vdW  Elec       q    Type
                         _______ _______ _______ _____ _____    ______ ____

>  <TORSDO>
F 5

>  <SCORE>
-6.280

>  <RMSD_LB>
4.551

>  <RMSD_UB>
8.954

$$$$
CHEMBL4536187
 OpenBabel10162523523D

 22 23  0  0  0  0  0  0  0  0999 V2000
  136.9060  134.9390  149.7880 C   0  0  0  0  0  2  0  0  0  0  0  0
  135.1770  135.6620  153.1340 C   0  0  0  0  0  0  0  0  0  0  0  0
  136.0920  135.7080  152.0720 C   0  0  0  0  0  3  0  0  0  0  0  0
  135.9580  134.8530  150.9600 C   0  0  0  0  0  0  0  0  0  0  0  0
  134.8780  133.9610  150.9230 C   0  0  0  0  0  3  0  0  0  0  0  0
  133.9630  133.9030  151.9750 C   0  0  0  0  0  3  0  0  0  0  0  0
  134.1170  134.7470  153.0710 C   0  0  0  0  0  0  0  0  0  0  0  0
  136.4230  136.4570  155.0090 C   0  0  0  0  0  1  0  0  0  0  0  0
  135.2210  136.4570  154.2510 O   0  0  0  0  0  0  0  0  0  0  0  0
  133.2190  134.6880  154.1050 O   0  0  0  0  0  0  0  0  0  0  0  0
  133.0560  133.8750  154.5390 H   0  0  0  0  0  0  0  0  0  0  0  0
  136.3110  134.4380  148.5620 N   0  0  0  0  0  0  0  0  0  0  0  0
  137.1180  134.0300  147.5240 C   0  0  0  0  0  0  0  0  0  0  0  0
  138.3300  134.1800  147.5050 O   0  0  0  0  0  0  0  0  0  0  0  0
  136.3960  133.4330  146.5190 N   0  0  0  0  0  0  0  0  0  0  0  0
  135.3320  134.3880  148.4730 H   0  0  0  0  0  0  0  0  0  0  0  0
  135.4330  133.2760  146.6420 H   0  0  0  0  0  0  0  0  0  0  0  0
  137.0340  133.0300  145.2760 C   0  0  0  0  0  3  0  0  0  0  0  0
  136.5100  133.7990  144.0610 C   0  0  0  0  0  2  0  0  0  0  0  0
  136.7800  132.8930  142.8600 C   0  0  0  0  0  2  0  0  0  0  0  0
  137.0820  131.5060  143.4220 C   0  0  0  0  0  2  0  0  0  0  0  0
  136.7380  131.5800  144.9060 C   0  0  0  0  0  2  0  0  0  0  0  0
  1  4  1  0  0  0  0
  2  9  1  0  0  0  0
  3  2  2  0  0  0  0
  4  3  1  0  0  0  0
  5  4  2  0  0  0  0
  5  6  1  0  0  0  0
  6  7  2  0  0  0  0
  7  2  1  0  0  0  0
  7 10  1  0  0  0  0
  9  8  1  0  0  0  0
 10 11  1  0  0  0  0
 12  1  1  0  0  0  0
 13 12  1  0  0  0  0
 14 13  2  0  0  0  0
 15 17  1  0  0  0  0
 15 13  1  0  0  0  0
 16 12  1  0  0  0  0
 18 15  1  0  0  0  0
 19 18  1  0  0  0  0
 20 21  1  0  0  0  0
 20 19  1  0  0  0  0
 21 22  1  0  0  0  0
 22 18  1  0  0  0  0
M  END
>  <MODEL>
9

>  <REMARK>
 VINA RESULT:    -6.222      8.445     10.365
 INTER + INTRA:          -8.189
 INTER:                  -7.859
 INTRA:                  -0.330
 UNBOUND:                -0.330
  Name = CHEMBL4536187
  6 active torsions:
  status: ('A' for Active; 'I' for Inactive)
    1  A    between atoms: C_1  and  O_2
    2  A    between atoms: O_2  and  C_3
    3  A    between atoms: C_5  and  C_6
    4  A    between atoms: C_6  and  N_7
    5  A    between atoms: N_10  and  C_11
    6  A    between atoms: C_18  and  O_19
                            x       y       z     vdW  Elec       q    Type
                         _______ _______ _______ _____ _____    ______ ____

>  <TORSDO>
F 5

>  <SCORE>
-6.222

>  <RMSD_LB>
8.445

>  <RMSD_UB>
10.365

$$$$
