CHEMBL78640
 OpenBabel10162523383D

 23 24  0  0  0  0  0  0  0  0999 V2000
  146.6920  139.2520  150.1270 N   0  0  0  0  0  0  0  0  0  0  0  0
  145.8010  140.2100  149.6860 C   0  0  0  0  0  0  0  0  0  0  0  0
  144.5970  140.1720  149.9300 O   0  0  0  0  0  0  0  0  0  0  0  0
  147.6520  139.3630  149.9360 H   0  0  0  0  0  0  0  0  0  0  0  0
  146.2450  138.0900  150.8660 C   0  0  0  0  0  2  0  0  0  0  0  0
  145.1980  138.9570  154.4400 C   0  0  0  0  0  0  0  0  0  0  0  0
  145.1680  138.7700  153.0520 C   0  0  0  0  0  3  0  0  0  0  0  0
  146.3040  138.3170  152.3570 C   0  0  0  0  0  0  0  0  0  0  0  0
  147.4870  138.0770  153.0710 C   0  0  0  0  0  3  0  0  0  0  0  0
  147.5300  138.2640  154.4540 C   0  0  0  0  0  3  0  0  0  0  0  0
  146.3890  138.6990  155.1300 C   0  0  0  0  0  0  0  0  0  0  0  0
  142.8380  139.2480  154.6390 C   0  0  0  0  0  1  0  0  0  0  0  0
  144.1360  139.3720  155.2020 O   0  0  0  0  0  0  0  0  0  0  0  0
  146.4310  138.8770  156.4880 O   0  0  0  0  0  0  0  0  0  0  0  0
  145.6370  138.8690  156.9850 H   0  0  0  0  0  0  0  0  0  0  0  0
  146.4430  141.2940  148.8360 C   0  0  0  0  0  2  0  0  0  0  0  0
  146.6750  142.5670  149.6480 C   0  0  0  0  0  2  0  0  0  0  0  0
  147.1310  142.2960  151.0650 C   0  0  0  0  0  0  0  0  0  0  0  0
  148.4760  142.0210  151.3480 C   0  0  0  0  0  3  0  0  0  0  0  0
  148.8980  141.8250  152.6660 C   0  0  0  0  0  3  0  0  0  0  0  0
  147.9790  141.8950  153.7130 C   0  0  0  0  0  3  0  0  0  0  0  0
  146.6360  142.1450  153.4400 C   0  0  0  0  0  3  0  0  0  0  0  0
  146.2140  142.3400  152.1230 C   0  0  0  0  0  3  0  0  0  0  0  0
  1  5  1  0  0  0  0
  2  3  2  0  0  0  0
  2  1  1  0  0  0  0
  4  1  1  0  0  0  0
  5  8  1  0  0  0  0
  6 11  1  0  0  0  0
  6 13  1  0  0  0  0
  7  6  2  0  0  0  0
  8  7  1  0  0  0  0
  8  9  2  0  0  0  0
  9 10  1  0  0  0  0
 10 11  2  0  0  0  0
 11 14  1  0  0  0  0
 12 13  1  0  0  0  0
 14 15  1  0  0  0  0
 16 17  1  0  0  0  0
 16  2  1  0  0  0  0
 17 18  1  0  0  0  0
 18 19  2  0  0  0  0
 18 23  1  0  0  0  0
 19 20  1  0  0  0  0
 20 21  2  0  0  0  0
 22 21  1  0  0  0  0
 23 22  2  0  0  0  0
M  END
>  <MODEL>
1

>  <REMARK>
 VINA RESULT:    -7.772      0.000      0.000
 INTER + INTRA:         -11.615
 INTER:                 -10.163
 INTRA:                  -1.452
 UNBOUND:                -0.890
  Name = CHEMBL78640
  8 active torsions:
  status: ('A' for Active; 'I' for Inactive)
    1  A    between atoms: C_1  and  O_2
    2  A    between atoms: O_2  and  C_3
    3  A    between atoms: C_5  and  C_6
    4  A    between atoms: C_6  and  N_7
    5  A    between atoms: C_8  and  C_10
    6  A    between atoms: C_10  and  C_11
    7  A    between atoms: C_11  and  C_12
    8  A    between atoms: C_20  and  O_21
                            x       y       z     vdW  Elec       q    Type
                         _______ _______ _______ _____ _____    ______ ____

>  <TORSDO>
F 7

>  <SCORE>
-7.772

>  <RMSD_LB>
0.000

>  <RMSD_UB>
0.000

$$$$
CHEMBL78640
 OpenBabel10162523383D

 23 24  0  0  0  0  0  0  0  0999 V2000
  147.3980  138.3200  153.2680 N   0  0  0  0  0  0  0  0  0  0  0  0
  147.6520  139.0570  154.4070 C   0  0  0  0  0  0  0  0  0  0  0  0
  147.1070  138.8370  155.4870 O   0  0  0  0  0  0  0  0  0  0  0  0
  147.9000  138.5160  152.4450 H   0  0  0  0  0  0  0  0  0  0  0  0
  146.4090  137.2630  153.2600 C   0  0  0  0  0  2  0  0  0  0  0  0
  143.5180  139.3270  151.8450 C   0  0  0  0  0  0  0  0  0  0  0  0
  144.8060  138.8390  152.0990 C   0  0  0  0  0  3  0  0  0  0  0  0
  145.0180  137.7980  153.0210 C   0  0  0  0  0  0  0  0  0  0  0  0
  143.9180  137.2660  153.7110 C   0  0  0  0  0  3  0  0  0  0  0  0
  142.6300  137.7470  153.4690 C   0  0  0  0  0  3  0  0  0  0  0  0
  142.4360  138.7700  152.5400 C   0  0  0  0  0  0  0  0  0  0  0  0
  143.3400  140.0160  149.5680 C   0  0  0  0  0  1  0  0  0  0  0  0
  143.2130  140.3190  150.9490 O   0  0  0  0  0  0  0  0  0  0  0  0
  141.1710  139.2370  152.2990 O   0  0  0  0  0  0  0  0  0  0  0  0
  140.7720  139.0980  151.4630 H   0  0  0  0  0  0  0  0  0  0  0  0
  148.6400  140.1920  154.1910 C   0  0  0  0  0  2  0  0  0  0  0  0
  147.9370  141.5480  154.2150 C   0  0  0  0  0  2  0  0  0  0  0  0
  147.3940  141.9620  152.8650 C   0  0  0  0  0  0  0  0  0  0  0  0
  148.2250  142.0100  151.7380 C   0  0  0  0  0  3  0  0  0  0  0  0
  147.7030  142.3400  150.4840 C   0  0  0  0  0  3  0  0  0  0  0  0
  146.3470  142.6330  150.3460 C   0  0  0  0  0  3  0  0  0  0  0  0
  145.5150  142.6110  151.4640 C   0  0  0  0  0  3  0  0  0  0  0  0
  146.0370  142.2810  152.7170 C   0  0  0  0  0  3  0  0  0  0  0  0
  1  2  1  0  0  0  0
  2  3  2  0  0  0  0
  4  1  1  0  0  0  0
  5  1  1  0  0  0  0
  6  7  2  0  0  0  0
  6 11  1  0  0  0  0
  7  8  1  0  0  0  0
  8  5  1  0  0  0  0
  8  9  2  0  0  0  0
 10  9  1  0  0  0  0
 11 10  2  0  0  0  0
 12 13  1  0  0  0  0
 13  6  1  0  0  0  0
 14 11  1  0  0  0  0
 15 14  1  0  0  0  0
 16 17  1  0  0  0  0
 16  2  1  0  0  0  0
 18 17  1  0  0  0  0
 19 18  2  0  0  0  0
 20 19  1  0  0  0  0
 21 20  2  0  0  0  0
 21 22  1  0  0  0  0
 22 23  2  0  0  0  0
 23 18  1  0  0  0  0
M  END
>  <MODEL>
2

>  <REMARK>
 VINA RESULT:    -7.567      1.806      4.015
 INTER + INTRA:         -11.333
 INTER:                 -10.074
 INTRA:                  -1.259
 UNBOUND:                -0.890
  Name = CHEMBL78640
  8 active torsions:
  status: ('A' for Active; 'I' for Inactive)
    1  A    between atoms: C_1  and  O_2
    2  A    between atoms: O_2  and  C_3
    3  A    between atoms: C_5  and  C_6
    4  A    between atoms: C_6  and  N_7
    5  A    between atoms: C_8  and  C_10
    6  A    between atoms: C_10  and  C_11
    7  A    between atoms: C_11  and  C_12
    8  A    between atoms: C_20  and  O_21
                            x       y       z     vdW  Elec       q    Type
                         _______ _______ _______ _____ _____    ______ ____

>  <TORSDO>
F 7

>  <SCORE>
-7.567

>  <RMSD_LB>
1.806

>  <RMSD_UB>
4.015

$$$$
CHEMBL78640
 OpenBabel10162523383D

 23 24  0  0  0  0  0  0  0  0999 V2000
  146.3390  139.2460  149.8090 N   0  0  0  0  0  0  0  0  0  0  0  0
  145.6530  140.3400  149.3220 C   0  0  0  0  0  0  0  0  0  0  0  0
  144.4410  140.3350  149.1110 O   0  0  0  0  0  0  0  0  0  0  0  0
  147.3020  139.3280  150.0000 H   0  0  0  0  0  0  0  0  0  0  0  0
  145.6740  137.9830  150.0460 C   0  0  0  0  0  2  0  0  0  0  0  0
  144.8080  138.5220  153.7320 C   0  0  0  0  0  0  0  0  0  0  0  0
  145.5110  138.4860  152.5210 C   0  0  0  0  0  3  0  0  0  0  0  0
  144.9130  137.9850  151.3490 C   0  0  0  0  0  0  0  0  0  0  0  0
  143.6010  137.4940  151.4130 C   0  0  0  0  0  3  0  0  0  0  0  0
  142.8920  137.5210  152.6150 C   0  0  0  0  0  3  0  0  0  0  0  0
  143.4950  138.0340  153.7640 C   0  0  0  0  0  0  0  0  0  0  0  0
  146.5990  138.5920  155.3070 C   0  0  0  0  0  1  0  0  0  0  0  0
  145.3000  139.0110  154.9140 O   0  0  0  0  0  0  0  0  0  0  0  0
  142.7960  138.0650  154.9420 O   0  0  0  0  0  0  0  0  0  0  0  0
  142.2370  137.3500  155.1730 H   0  0  0  0  0  0  0  0  0  0  0  0
  146.5410  141.5390  149.0340 C   0  0  0  0  0  2  0  0  0  0  0  0
  146.3300  142.6440  150.0680 C   0  0  0  0  0  2  0  0  0  0  0  0
  146.9010  142.3060  151.4280 C   0  0  0  0  0  0  0  0  0  0  0  0
  148.2610  142.0040  151.5830 C   0  0  0  0  0  3  0  0  0  0  0  0
  148.7910  141.7460  152.8500 C   0  0  0  0  0  3  0  0  0  0  0  0
  147.9650  141.7800  153.9740 C   0  0  0  0  0  3  0  0  0  0  0  0
  146.6070  142.0560  153.8290 C   0  0  0  0  0  3  0  0  0  0  0  0
  146.0770  142.3130  152.5620 C   0  0  0  0  0  3  0  0  0  0  0  0
  1  4  1  0  0  0  0
  1  5  1  0  0  0  0
  2  1  1  0  0  0  0
  3  2  2  0  0  0  0
  5  8  1  0  0  0  0
  6 11  1  0  0  0  0
  6 13  1  0  0  0  0
  7  6  2  0  0  0  0
  8  9  2  0  0  0  0
  8  7  1  0  0  0  0
  9 10  1  0  0  0  0
 10 11  2  0  0  0  0
 11 14  1  0  0  0  0
 13 12  1  0  0  0  0
 14 15  1  0  0  0  0
 16  2  1  0  0  0  0
 16 17  1  0  0  0  0
 17 18  1  0  0  0  0
 18 19  2  0  0  0  0
 18 23  1  0  0  0  0
 19 20  1  0  0  0  0
 20 21  2  0  0  0  0
 22 21  1  0  0  0  0
 23 22  2  0  0  0  0
M  END
>  <MODEL>
3

>  <REMARK>
 VINA RESULT:    -7.441      1.156      2.126
 INTER + INTRA:         -11.158
 INTER:                  -9.882
 INTRA:                  -1.276
 UNBOUND:                -0.890
  Name = CHEMBL78640
  8 active torsions:
  status: ('A' for Active; 'I' for Inactive)
    1  A    between atoms: C_1  and  O_2
    2  A    between atoms: O_2  and  C_3
    3  A    between atoms: C_5  and  C_6
    4  A    between atoms: C_6  and  N_7
    5  A    between atoms: C_8  and  C_10
    6  A    between atoms: C_10  and  C_11
    7  A    between atoms: C_11  and  C_12
    8  A    between atoms: C_20  and  O_21
                            x       y       z     vdW  Elec       q    Type
                         _______ _______ _______ _____ _____    ______ ____

>  <TORSDO>
F 7

>  <SCORE>
-7.441

>  <RMSD_LB>
1.156

>  <RMSD_UB>
2.126

$$$$
CHEMBL78640
 OpenBabel10162523383D

 23 24  0  0  0  0  0  0  0  0999 V2000
  146.7970  139.0410  152.9220 N   0  0  0  0  0  0  0  0  0  0  0  0
  148.0870  139.1500  153.4020 C   0  0  0  0  0  0  0  0  0  0  0  0
  149.0230  138.4770  152.9750 O   0  0  0  0  0  0  0  0  0  0  0  0
  146.1000  139.6400  153.2740 H   0  0  0  0  0  0  0  0  0  0  0  0
  146.4490  138.0660  151.9110 C   0  0  0  0  0  2  0  0  0  0  0  0
  144.1400  139.8470  149.4380 C   0  0  0  0  0  0  0  0  0  0  0  0
  144.6200  139.2100  150.5890 C   0  0  0  0  0  3  0  0  0  0  0  0
  145.9380  138.7210  150.6510 C   0  0  0  0  0  0  0  0  0  0  0  0
  146.7660  138.8560  149.5280 C   0  0  0  0  0  3  0  0  0  0  0  0
  146.2970  139.4850  148.3730 C   0  0  0  0  0  3  0  0  0  0  0  0
  144.9920  139.9780  148.3340 C   0  0  0  0  0  0  0  0  0  0  0  0
  141.7800  139.5010  149.4990 C   0  0  0  0  0  1  0  0  0  0  0  0
  142.8820  140.3730  149.2950 O   0  0  0  0  0  0  0  0  0  0  0  0
  144.5350  140.6000  147.2020 O   0  0  0  0  0  0  0  0  0  0  0  0
  144.7440  141.5000  147.0460 H   0  0  0  0  0  0  0  0  0  0  0  0
  148.2320  140.1530  154.5360 C   0  0  0  0  0  2  0  0  0  0  0  0
  148.5410  141.5500  154.0010 C   0  0  0  0  0  2  0  0  0  0  0  0
  147.7060  141.9240  152.7960 C   0  0  0  0  0  0  0  0  0  0  0  0
  146.3350  142.1880  152.9230 C   0  0  0  0  0  3  0  0  0  0  0  0
  145.5830  142.5860  151.8140 C   0  0  0  0  0  3  0  0  0  0  0  0
  146.1920  142.7180  150.5660 C   0  0  0  0  0  3  0  0  0  0  0  0
  147.5490  142.4370  150.4240 C   0  0  0  0  0  3  0  0  0  0  0  0
  148.3010  142.0380  151.5320 C   0  0  0  0  0  3  0  0  0  0  0  0
  1  4  1  0  0  0  0
  1  2  1  0  0  0  0
  2 16  1  0  0  0  0
  3  2  2  0  0  0  0
  5  1  1  0  0  0  0
  6  7  1  0  0  0  0
  7  8  2  0  0  0  0
  8  5  1  0  0  0  0
  9  8  1  0  0  0  0
 10  9  2  0  0  0  0
 11 10  1  0  0  0  0
 11  6  2  0  0  0  0
 13  6  1  0  0  0  0
 13 12  1  0  0  0  0
 14 11  1  0  0  0  0
 15 14  1  0  0  0  0
 17 16  1  0  0  0  0
 18 19  1  0  0  0  0
 18 17  1  0  0  0  0
 20 19  2  0  0  0  0
 21 20  1  0  0  0  0
 22 21  2  0  0  0  0
 22 23  1  0  0  0  0
 23 18  2  0  0  0  0
M  END
>  <MODEL>
4

>  <REMARK>
 VINA RESULT:    -7.230      2.320      4.735
 INTER + INTRA:         -10.868
 INTER:                  -9.623
 INTRA:                  -1.245
 UNBOUND:                -0.890
  Name = CHEMBL78640
  8 active torsions:
  status: ('A' for Active; 'I' for Inactive)
    1  A    between atoms: C_1  and  O_2
    2  A    between atoms: O_2  and  C_3
    3  A    between atoms: C_5  and  C_6
    4  A    between atoms: C_6  and  N_7
    5  A    between atoms: C_8  and  C_10
    6  A    between atoms: C_10  and  C_11
    7  A    between atoms: C_11  and  C_12
    8  A    between atoms: C_20  and  O_21
                            x       y       z     vdW  Elec       q    Type
                         _______ _______ _______ _____ _____    ______ ____

>  <TORSDO>
F 7

>  <SCORE>
-7.230

>  <RMSD_LB>
2.320

>  <RMSD_UB>
4.735

$$$$
CHEMBL78640
 OpenBabel10162523383D

 23 24  0  0  0  0  0  0  0  0999 V2000
  144.2600  138.4900  151.1130 N   0  0  0  0  0  0  0  0  0  0  0  0
  144.4680  139.6970  151.7500 C   0  0  0  0  0  0  0  0  0  0  0  0
  144.2050  139.8860  152.9360 O   0  0  0  0  0  0  0  0  0  0  0  0
  144.5330  138.3890  150.1720 H   0  0  0  0  0  0  0  0  0  0  0  0
  143.6510  137.3710  151.7990 C   0  0  0  0  0  2  0  0  0  0  0  0
  140.1010  138.0140  153.0670 C   0  0  0  0  0  0  0  0  0  0  0  0
  141.4940  137.8720  153.0230 C   0  0  0  0  0  3  0  0  0  0  0  0
  142.1460  137.4880  151.8370 C   0  0  0  0  0  0  0  0  0  0  0  0
  141.3780  137.2200  150.6950 C   0  0  0  0  0  3  0  0  0  0  0  0
  139.9890  137.3530  150.7280 C   0  0  0  0  0  3  0  0  0  0  0  0
  139.3590  137.7500  151.9080 C   0  0  0  0  0  0  0  0  0  0  0  0
  139.9320  138.1130  155.4440 C   0  0  0  0  0  1  0  0  0  0  0  0
  139.3830  138.4050  154.1670 O   0  0  0  0  0  0  0  0  0  0  0  0
  137.9960  137.8860  151.9380 O   0  0  0  0  0  0  0  0  0  0  0  0
  137.4490  137.1430  151.7780 H   0  0  0  0  0  0  0  0  0  0  0  0
  145.0150  140.7820  150.8360 C   0  0  0  0  0  2  0  0  0  0  0  0
  145.3350  142.0540  151.6200 C   0  0  0  0  0  2  0  0  0  0  0  0
  146.7230  142.0480  152.2220 C   0  0  0  0  0  0  0  0  0  0  0  0
  146.9070  141.9570  153.6090 C   0  0  0  0  0  3  0  0  0  0  0  0
  148.1930  141.8970  154.1520 C   0  0  0  0  0  3  0  0  0  0  0  0
  149.3090  141.9370  153.3160 C   0  0  0  0  0  3  0  0  0  0  0  0
  149.1380  142.0510  151.9380 C   0  0  0  0  0  3  0  0  0  0  0  0
  147.8520  142.1110  151.3940 C   0  0  0  0  0  3  0  0  0  0  0  0
  1  2  1  0  0  0  0
  1  5  1  0  0  0  0
  2  3  2  0  0  0  0
  4  1  1  0  0  0  0
  5  8  1  0  0  0  0
  6 13  1  0  0  0  0
  7  6  1  0  0  0  0
  8  7  2  0  0  0  0
  9 10  2  0  0  0  0
  9  8  1  0  0  0  0
 10 11  1  0  0  0  0
 11 14  1  0  0  0  0
 11  6  2  0  0  0  0
 13 12  1  0  0  0  0
 15 14  1  0  0  0  0
 16 17  1  0  0  0  0
 16  2  1  0  0  0  0
 17 18  1  0  0  0  0
 18 19  1  0  0  0  0
 19 20  2  0  0  0  0
 21 20  1  0  0  0  0
 22 21  2  0  0  0  0
 23 22  1  0  0  0  0
 23 18  2  0  0  0  0
M  END
>  <MODEL>
5

>  <REMARK>
 VINA RESULT:    -7.156      3.184      4.547
 INTER + INTRA:         -10.765
 INTER:                 -10.241
 INTRA:                  -0.525
 UNBOUND:                -0.890
  Name = CHEMBL78640
  8 active torsions:
  status: ('A' for Active; 'I' for Inactive)
    1  A    between atoms: C_1  and  O_2
    2  A    between atoms: O_2  and  C_3
    3  A    between atoms: C_5  and  C_6
    4  A    between atoms: C_6  and  N_7
    5  A    between atoms: C_8  and  C_10
    6  A    between atoms: C_10  and  C_11
    7  A    between atoms: C_11  and  C_12
    8  A    between atoms: C_20  and  O_21
                            x       y       z     vdW  Elec       q    Type
                         _______ _______ _______ _____ _____    ______ ____

>  <TORSDO>
F 7

>  <SCORE>
-7.156

>  <RMSD_LB>
3.184

>  <RMSD_UB>
4.547

$$$$
CHEMBL78640
 OpenBabel10162523383D

 23 24  0  0  0  0  0  0  0  0999 V2000
  145.2340  138.8430  150.4030 N   0  0  0  0  0  0  0  0  0  0  0  0
  145.0390  139.9410  149.5890 C   0  0  0  0  0  0  0  0  0  0  0  0
  143.9280  140.3160  149.2210 O   0  0  0  0  0  0  0  0  0  0  0  0
  146.1460  138.6200  150.7000 H   0  0  0  0  0  0  0  0  0  0  0  0
  144.1270  138.0140  150.8300 C   0  0  0  0  0  2  0  0  0  0  0  0
  141.8320  138.4450  153.8580 C   0  0  0  0  0  0  0  0  0  0  0  0
  142.3050  138.1090  152.5830 C   0  0  0  0  0  3  0  0  0  0  0  0
  143.6240  138.4110  152.1970 C   0  0  0  0  0  0  0  0  0  0  0  0
  144.4610  139.0820  153.1010 C   0  0  0  0  0  3  0  0  0  0  0  0
  143.9990  139.4250  154.3730 C   0  0  0  0  0  3  0  0  0  0  0  0
  142.6930  139.1050  154.7460 C   0  0  0  0  0  0  0  0  0  0  0  0
  139.5140  139.0070  153.8890 C   0  0  0  0  0  1  0  0  0  0  0  0
  140.5740  138.1710  154.3290 O   0  0  0  0  0  0  0  0  0  0  0  0
  142.2420  139.4370  155.9960 O   0  0  0  0  0  0  0  0  0  0  0  0
  141.7650  140.2330  156.1240 H   0  0  0  0  0  0  0  0  0  0  0  0
  146.3300  140.6180  149.1590 C   0  0  0  0  0  2  0  0  0  0  0  0
  146.4370  142.0250  149.7430 C   0  0  0  0  0  2  0  0  0  0  0  0
  146.9170  142.0390  151.1780 C   0  0  0  0  0  0  0  0  0  0  0  0
  146.0240  142.2730  152.2340 C   0  0  0  0  0  3  0  0  0  0  0  0
  146.4660  142.2300  153.5590 C   0  0  0  0  0  3  0  0  0  0  0  0
  147.8050  141.9610  153.8430 C   0  0  0  0  0  3  0  0  0  0  0  0
  148.7050  141.7500  152.8000 C   0  0  0  0  0  3  0  0  0  0  0  0
  148.2640  141.7940  151.4750 C   0  0  0  0  0  3  0  0  0  0  0  0
  1  4  1  0  0  0  0
  1  5  1  0  0  0  0
  2  1  1  0  0  0  0
  3  2  2  0  0  0  0
  5  8  1  0  0  0  0
  6 13  1  0  0  0  0
  6 11  1  0  0  0  0
  7  6  2  0  0  0  0
  8  7  1  0  0  0  0
  8  9  2  0  0  0  0
  9 10  1  0  0  0  0
 10 11  2  0  0  0  0
 11 14  1  0  0  0  0
 12 13  1  0  0  0  0
 14 15  1  0  0  0  0
 16  2  1  0  0  0  0
 16 17  1  0  0  0  0
 17 18  1  0  0  0  0
 18 23  2  0  0  0  0
 18 19  1  0  0  0  0
 19 20  2  0  0  0  0
 20 21  1  0  0  0  0
 22 21  2  0  0  0  0
 23 22  1  0  0  0  0
M  END
>  <MODEL>
6

>  <REMARK>
 VINA RESULT:    -7.053      1.799      2.616
 INTER + INTRA:         -10.622
 INTER:                  -9.424
 INTRA:                  -1.199
 UNBOUND:                -0.890
  Name = CHEMBL78640
  8 active torsions:
  status: ('A' for Active; 'I' for Inactive)
    1  A    between atoms: C_1  and  O_2
    2  A    between atoms: O_2  and  C_3
    3  A    between atoms: C_5  and  C_6
    4  A    between atoms: C_6  and  N_7
    5  A    between atoms: C_8  and  C_10
    6  A    between atoms: C_10  and  C_11
    7  A    between atoms: C_11  and  C_12
    8  A    between atoms: C_20  and  O_21
                            x       y       z     vdW  Elec       q    Type
                         _______ _______ _______ _____ _____    ______ ____

>  <TORSDO>
F 7

>  <SCORE>
-7.053

>  <RMSD_LB>
1.799

>  <RMSD_UB>
2.616

$$$$
CHEMBL78640
 OpenBabel10162523383D

 23 24  0  0  0  0  0  0  0  0999 V2000
  145.7710  138.9290  153.7230 N   0  0  0  0  0  0  0  0  0  0  0  0
  146.7010  139.2110  154.7030 C   0  0  0  0  0  0  0  0  0  0  0  0
  146.5700  138.8620  155.8750 O   0  0  0  0  0  0  0  0  0  0  0  0
  145.9550  139.1970  152.7930 H   0  0  0  0  0  0  0  0  0  0  0  0
  144.5330  138.2470  154.0320 C   0  0  0  0  0  2  0  0  0  0  0  0
  143.9930  136.6370  150.6050 C   0  0  0  0  0  0  0  0  0  0  0  0
  144.6110  137.1500  151.7530 C   0  0  0  0  0  3  0  0  0  0  0  0
  143.8530  137.7270  152.7890 C   0  0  0  0  0  0  0  0  0  0  0  0
  142.4600  137.8060  152.6480 C   0  0  0  0  0  3  0  0  0  0  0  0
  141.8330  137.3020  151.5070 C   0  0  0  0  0  3  0  0  0  0  0  0
  142.5990  136.7200  150.4960 C   0  0  0  0  0  0  0  0  0  0  0  0
  145.3560  136.8820  148.6620 C   0  0  0  0  0  1  0  0  0  0  0  0
  144.6470  136.0390  149.5590 O   0  0  0  0  0  0  0  0  0  0  0  0
  141.9820  136.2200  149.3790 O   0  0  0  0  0  0  0  0  0  0  0  0
  141.0590  136.0590  149.3870 H   0  0  0  0  0  0  0  0  0  0  0  0
  147.8820  140.0290  154.2060 C   0  0  0  0  0  2  0  0  0  0  0  0
  147.5180  141.5080  154.0870 C   0  0  0  0  0  2  0  0  0  0  0  0
  147.1940  141.9290  152.6700 C   0  0  0  0  0  0  0  0  0  0  0  0
  145.8790  142.2320  152.2920 C   0  0  0  0  0  3  0  0  0  0  0  0
  145.5970  142.6730  150.9960 C   0  0  0  0  0  3  0  0  0  0  0  0
  146.6250  142.8100  150.0630 C   0  0  0  0  0  3  0  0  0  0  0  0
  147.9330  142.4900  150.4220 C   0  0  0  0  0  3  0  0  0  0  0  0
  148.2150  142.0480  151.7170 C   0  0  0  0  0  3  0  0  0  0  0  0
  1  5  1  0  0  0  0
  1  2  1  0  0  0  0
  2  3  2  0  0  0  0
  4  1  1  0  0  0  0
  6  7  1  0  0  0  0
  7  8  2  0  0  0  0
  8  5  1  0  0  0  0
  9  8  1  0  0  0  0
 10  9  2  0  0  0  0
 11  6  2  0  0  0  0
 11 10  1  0  0  0  0
 12 13  1  0  0  0  0
 13  6  1  0  0  0  0
 14 15  1  0  0  0  0
 14 11  1  0  0  0  0
 16  2  1  0  0  0  0
 17 16  1  0  0  0  0
 18 17  1  0  0  0  0
 19 18  1  0  0  0  0
 20 19  2  0  0  0  0
 21 22  2  0  0  0  0
 21 20  1  0  0  0  0
 22 23  1  0  0  0  0
 23 18  2  0  0  0  0
M  END
>  <MODEL>
7

>  <REMARK>
 VINA RESULT:    -6.987      2.409      4.943
 INTER + INTRA:         -10.532
 INTER:                  -9.830
 INTRA:                  -0.702
 UNBOUND:                -0.890
  Name = CHEMBL78640
  8 active torsions:
  status: ('A' for Active; 'I' for Inactive)
    1  A    between atoms: C_1  and  O_2
    2  A    between atoms: O_2  and  C_3
    3  A    between atoms: C_5  and  C_6
    4  A    between atoms: C_6  and  N_7
    5  A    between atoms: C_8  and  C_10
    6  A    between atoms: C_10  and  C_11
    7  A    between atoms: C_11  and  C_12
    8  A    between atoms: C_20  and  O_21
                            x       y       z     vdW  Elec       q    Type
                         _______ _______ _______ _____ _____    ______ ____

>  <TORSDO>
F 7

>  <SCORE>
-6.987

>  <RMSD_LB>
2.409

>  <RMSD_UB>
4.943

$$$$
CHEMBL78640
 OpenBabel10162523383D

 23 24  0  0  0  0  0  0  0  0999 V2000
  138.7490  137.8110  155.2670 N   0  0  0  0  0  0  0  0  0  0  0  0
  137.4910  138.1890  155.6920 C   0  0  0  0  0  0  0  0  0  0  0  0
  137.0000  139.2890  155.4470 O   0  0  0  0  0  0  0  0  0  0  0  0
  139.0690  136.9000  155.4580 H   0  0  0  0  0  0  0  0  0  0  0  0
  139.6080  138.7270  154.5480 C   0  0  0  0  0  2  0  0  0  0  0  0
  139.5110  137.3910  150.9660 C   0  0  0  0  0  0  0  0  0  0  0  0
  139.1110  137.8940  152.2100 C   0  0  0  0  0  3  0  0  0  0  0  0
  140.0520  138.1560  153.2230 C   0  0  0  0  0  0  0  0  0  0  0  0
  141.4060  137.8810  152.9800 C   0  0  0  0  0  3  0  0  0  0  0  0
  141.8160  137.3750  151.7450 C   0  0  0  0  0  3  0  0  0  0  0  0
  140.8710  137.1360  150.7460 C   0  0  0  0  0  0  0  0  0  0  0  0
  137.3580  137.6680  149.9760 C   0  0  0  0  0  1  0  0  0  0  0  0
  138.6700  137.1290  149.9150 O   0  0  0  0  0  0  0  0  0  0  0  0
  141.2750  136.6450  149.5330 O   0  0  0  0  0  0  0  0  0  0  0  0
  141.6800  137.2160  148.9090 H   0  0  0  0  0  0  0  0  0  0  0  0
  136.7860  137.1300  156.5250 C   0  0  0  0  0  2  0  0  0  0  0  0
  136.8520  135.7620  155.8500 C   0  0  0  0  0  2  0  0  0  0  0  0
  135.8580  135.6070  154.7190 C   0  0  0  0  0  0  0  0  0  0  0  0
  134.5170  135.2900  154.9780 C   0  0  0  0  0  3  0  0  0  0  0  0
  133.5950  135.2020  153.9320 C   0  0  0  0  0  3  0  0  0  0  0  0
  134.0040  135.4230  152.6170 C   0  0  0  0  0  3  0  0  0  0  0  0
  135.3390  135.7160  152.3460 C   0  0  0  0  0  3  0  0  0  0  0  0
  136.2620  135.8030  153.3920 C   0  0  0  0  0  3  0  0  0  0  0  0
  1  4  1  0  0  0  0
  1  2  1  0  0  0  0
  2 16  1  0  0  0  0
  3  2  2  0  0  0  0
  5  1  1  0  0  0  0
  6  7  1  0  0  0  0
  7  8  2  0  0  0  0
  8  5  1  0  0  0  0
  9  8  1  0  0  0  0
 10  9  2  0  0  0  0
 11  6  2  0  0  0  0
 11 10  1  0  0  0  0
 13 12  1  0  0  0  0
 13  6  1  0  0  0  0
 14 11  1  0  0  0  0
 15 14  1  0  0  0  0
 17 16  1  0  0  0  0
 18 19  1  0  0  0  0
 18 17  1  0  0  0  0
 20 19  2  0  0  0  0
 21 20  1  0  0  0  0
 22 21  2  0  0  0  0
 22 23  1  0  0  0  0
 23 18  2  0  0  0  0
M  END
>  <MODEL>
8

>  <REMARK>
 VINA RESULT:    -6.833      6.835     10.736
 INTER + INTRA:         -10.319
 INTER:                  -9.332
 INTRA:                  -0.987
 UNBOUND:                -0.890
  Name = CHEMBL78640
  8 active torsions:
  status: ('A' for Active; 'I' for Inactive)
    1  A    between atoms: C_1  and  O_2
    2  A    between atoms: O_2  and  C_3
    3  A    between atoms: C_5  and  C_6
    4  A    between atoms: C_6  and  N_7
    5  A    between atoms: C_8  and  C_10
    6  A    between atoms: C_10  and  C_11
    7  A    between atoms: C_11  and  C_12
    8  A    between atoms: C_20  and  O_21
                            x       y       z     vdW  Elec       q    Type
                         _______ _______ _______ _____ _____    ______ ____

>  <TORSDO>
F 7

>  <SCORE>
-6.833

>  <RMSD_LB>
6.835

>  <RMSD_UB>
10.736

$$$$
CHEMBL78640
 OpenBabel10162523383D

 23 24  0  0  0  0  0  0  0  0999 V2000
  143.7970  139.1560  149.9380 N   0  0  0  0  0  0  0  0  0  0  0  0
  142.5950  138.7410  149.4010 C   0  0  0  0  0  0  0  0  0  0  0  0
  141.8060  139.5040  148.8470 O   0  0  0  0  0  0  0  0  0  0  0  0
  144.4060  138.4890  150.3290 H   0  0  0  0  0  0  0  0  0  0  0  0
  144.1800  140.5520  149.9400 C   0  0  0  0  0  2  0  0  0  0  0  0
  145.4900  140.4570  153.5310 C   0  0  0  0  0  0  0  0  0  0  0  0
  144.7960  140.1340  152.3580 C   0  0  0  0  0  3  0  0  0  0  0  0
  144.9100  140.9320  151.2050 C   0  0  0  0  0  0  0  0  0  0  0  0
  145.7140  142.0810  151.2500 C   0  0  0  0  0  3  0  0  0  0  0  0
  146.4070  142.4150  152.4150 C   0  0  0  0  0  3  0  0  0  0  0  0
  146.2950  141.6040  153.5450 C   0  0  0  0  0  0  0  0  0  0  0  0
  146.1810  138.5060  154.7170 C   0  0  0  0  0  1  0  0  0  0  0  0
  145.4580  139.7280  154.6920 O   0  0  0  0  0  0  0  0  0  0  0  0
  146.9800  141.9300  154.6850 O   0  0  0  0  0  0  0  0  0  0  0  0
  146.6880  141.6060  155.5140 H   0  0  0  0  0  0  0  0  0  0  0  0
  142.3220  137.2580  149.5920 C   0  0  0  0  0  2  0  0  0  0  0  0
  141.0220  137.0320  150.3630 C   0  0  0  0  0  2  0  0  0  0  0  0
  141.1060  137.4600  151.8120 C   0  0  0  0  0  0  0  0  0  0  0  0
  139.9670  137.8980  152.5000 C   0  0  0  0  0  3  0  0  0  0  0  0
  140.0430  138.2400  153.8530 C   0  0  0  0  0  3  0  0  0  0  0  0
  141.2600  138.1550  154.5300 C   0  0  0  0  0  3  0  0  0  0  0  0
  142.4030  137.7420  153.8490 C   0  0  0  0  0  3  0  0  0  0  0  0
  142.3280  137.4010  152.4960 C   0  0  0  0  0  3  0  0  0  0  0  0
  1  5  1  0  0  0  0
  1  4  1  0  0  0  0
  2 16  1  0  0  0  0
  2  1  1  0  0  0  0
  3  2  2  0  0  0  0
  5  8  1  0  0  0  0
  6 11  1  0  0  0  0
  6 13  1  0  0  0  0
  7  6  2  0  0  0  0
  8  9  2  0  0  0  0
  8  7  1  0  0  0  0
  9 10  1  0  0  0  0
 10 11  2  0  0  0  0
 11 14  1  0  0  0  0
 13 12  1  0  0  0  0
 14 15  1  0  0  0  0
 16 17  1  0  0  0  0
 17 18  1  0  0  0  0
 18 23  2  0  0  0  0
 18 19  1  0  0  0  0
 19 20  2  0  0  0  0
 20 21  1  0  0  0  0
 22 21  2  0  0  0  0
 23 22  1  0  0  0  0
M  END
>  <MODEL>
9

>  <REMARK>
 VINA RESULT:    -6.627      2.733      5.423
 INTER + INTRA:         -10.034
 INTER:                  -9.145
 INTRA:                  -0.890
 UNBOUND:                -0.890
  Name = CHEMBL78640
  8 active torsions:
  status: ('A' for Active; 'I' for Inactive)
    1  A    between atoms: C_1  and  O_2
    2  A    between atoms: O_2  and  C_3
    3  A    between atoms: C_5  and  C_6
    4  A    between atoms: C_6  and  N_7
    5  A    between atoms: C_8  and  C_10
    6  A    between atoms: C_10  and  C_11
    7  A    between atoms: C_11  and  C_12
    8  A    between atoms: C_20  and  O_21
                            x       y       z     vdW  Elec       q    Type
                         _______ _______ _______ _____ _____    ______ ____

>  <TORSDO>
F 7

>  <SCORE>
-6.627

>  <RMSD_LB>
2.733

>  <RMSD_UB>
5.423

$$$$
