CHEMBL1950103
 OpenBabel10172500503D

 36 37  0  0  0  0  0  0  0  0999 V2000
  142.1410  137.6020  153.2340 C   0  0  0  0  0  2  0  0  0  0  0  0
  141.8820  137.6990  151.7300 C   0  0  0  0  0  2  0  0  0  0  0  0
  140.0880  137.0230  150.1820 C   0  0  0  0  0  0  0  0  0  0  0  0
  140.8700  136.7290  149.2840 O   0  0  0  0  0  0  0  0  0  0  0  0
  140.4850  137.5260  151.4030 N   0  0  0  0  0  0  0  0  0  0  0  0
  139.8020  137.7730  152.0670 H   0  0  0  0  0  0  0  0  0  0  0  0
  138.5940  136.8380  150.0420 C   0  0  0  0  0  2  0  0  0  0  0  0
  137.9000  136.9900  151.3910 C   0  0  0  0  0  2  0  0  0  0  0  0
  134.4430  135.7870  150.3170 C   0  0  0  0  0  0  0  0  0  0  0  0
  135.7190  136.3590  150.2900 C   0  0  0  0  0  3  0  0  0  0  0  0
  136.5420  136.3380  151.4280 C   0  0  0  0  0  0  0  0  0  0  0  0
  136.0820  135.7150  152.5950 C   0  0  0  0  0  3  0  0  0  0  0  0
  134.8120  135.1430  152.6360 C   0  0  0  0  0  3  0  0  0  0  0  0
  134.0000  135.1850  151.5030 C   0  0  0  0  0  0  0  0  0  0  0  0
  133.7950  134.8060  148.2440 C   0  0  0  0  0  1  0  0  0  0  0  0
  133.5700  135.7730  149.2600 O   0  0  0  0  0  0  0  0  0  0  0  0
  132.7470  134.6320  151.5460 O   0  0  0  0  0  0  0  0  0  0  0  0
  131.9930  135.1840  151.6120 H   0  0  0  0  0  0  0  0  0  0  0  0
  141.6360  138.8350  153.9900 C   0  0  0  0  0  2  0  0  0  0  0  0
  141.2950  138.5210  155.4470 C   0  0  0  0  0  2  0  0  0  0  0  0
  139.9770  137.9420  155.5880 N   0  0  0  0  0  0  0  0  0  0  0  0
  138.8730  138.5130  154.9920 C   0  0  0  0  0  0  0  0  0  0  0  0
  138.9120  139.5630  154.3630 O   0  0  0  0  0  0  0  0  0  0  0  0
  139.8670  137.1220  156.1210 H   0  0  0  0  0  0  0  0  0  0  0  0
  137.5930  137.7200  155.1600 C   0  0  0  0  0  2  0  0  0  0  0  0
  137.8720  136.3440  155.7550 C   0  0  0  0  0  2  0  0  0  0  0  0
  136.7890  135.8840  156.6980 C   0  0  0  0  0  0  0  0  0  0  0  0
  135.6600  135.2230  156.2060 C   0  0  0  0  0  3  0  0  0  0  0  0
  134.6500  134.8150  157.0760 C   0  0  0  0  0  3  0  0  0  0  0  0
  134.7560  135.0570  158.4500 C   0  0  0  0  0  0  0  0  0  0  0  0
  135.8780  135.7120  158.9660 C   0  0  0  0  0  0  0  0  0  0  0  0
  136.8870  136.1130  158.0780 C   0  0  0  0  0  3  0  0  0  0  0  0
  133.7360  134.6360  159.2560 O   0  0  0  0  0  0  0  0  0  0  0  0
  133.4490  133.7450  159.2220 H   0  0  0  0  0  0  0  0  0  0  0  0
  136.1450  136.0380  160.2690 O   0  0  0  0  0  0  0  0  0  0  0  0
  136.6140  137.3510  160.5450 C   0  0  0  0  0  1  0  0  0  0  0  0
  1 19  1  0  0  0  0
  2  1  1  0  0  0  0
  3  5  1  0  0  0  0
  4  3  2  0  0  0  0
  5  2  1  0  0  0  0
  5  6  1  0  0  0  0
  7  3  1  0  0  0  0
  7  8  1  0  0  0  0
  8 11  1  0  0  0  0
  9 14  1  0  0  0  0
 10  9  2  0  0  0  0
 10 11  1  0  0  0  0
 11 12  2  0  0  0  0
 12 13  1  0  0  0  0
 14 17  1  0  0  0  0
 14 13  2  0  0  0  0
 15 16  1  0  0  0  0
 16  9  1  0  0  0  0
 17 18  1  0  0  0  0
 19 20  1  0  0  0  0
 20 21  1  0  0  0  0
 21 24  1  0  0  0  0
 22 25  1  0  0  0  0
 22 21  1  0  0  0  0
 23 22  2  0  0  0  0
 25 26  1  0  0  0  0
 26 27  1  0  0  0  0
 27 32  1  0  0  0  0
 28 27  2  0  0  0  0
 28 29  1  0  0  0  0
 29 30  2  0  0  0  0
 30 31  1  0  0  0  0
 30 33  1  0  0  0  0
 31 35  1  0  0  0  0
 32 31  2  0  0  0  0
 34 33  1  0  0  0  0
 35 36  1  0  0  0  0
M  END
>  <MODEL>
1

>  <REMARK>
 VINA RESULT:    -6.992      0.000      0.000
 INTER + INTRA:         -14.011
 INTER:                 -12.452
 INTRA:                  -1.558
 UNBOUND:                -1.296
  Name = CHEMBL1950103
  17 active torsions:
  status: ('A' for Active; 'I' for Inactive)
    1  A    between atoms: C_1  and  O_2
    2  A    between atoms: O_2  and  C_3
    3  A    between atoms: C_5  and  C_6
    4  A    between atoms: C_6  and  C_7
    5  A    between atoms: C_7  and  C_8
    6  A    between atoms: N_10  and  C_11
    7  A    between atoms: C_11  and  C_12
    8  A    between atoms: C_12  and  C_13
    9  A    between atoms: C_13  and  C_14
   10  A    between atoms: C_14  and  N_15
   11  A    between atoms: C_16  and  C_18
   12  A    between atoms: C_18  and  C_19
   13  A    between atoms: C_19  and  C_20
   14  A    between atoms: C_23  and  O_24
   15  A    between atoms: C_25  and  O_26
   16  A    between atoms: O_26  and  C_27
   17  A    between atoms: C_31  and  O_32
                            x       y       z     vdW  Elec       q    Type
                         _______ _______ _______ _____ _____    ______ ____

>  <TORSDO>
F 15

>  <SCORE>
-6.992

>  <RMSD_LB>
0.000

>  <RMSD_UB>
0.000

$$$$
CHEMBL1950103
 OpenBabel10172500503D

 36 37  0  0  0  0  0  0  0  0999 V2000
  141.1990  138.5430  151.1540 C   0  0  0  0  0  2  0  0  0  0  0  0
  139.8370  139.2220  151.2960 C   0  0  0  0  0  2  0  0  0  0  0  0
  137.9760  137.6070  151.2590 C   0  0  0  0  0  0  0  0  0  0  0  0
  137.9010  137.6070  150.0350 O   0  0  0  0  0  0  0  0  0  0  0  0
  138.8730  138.3790  151.9660 N   0  0  0  0  0  0  0  0  0  0  0  0
  138.8560  138.3560  152.9500 H   0  0  0  0  0  0  0  0  0  0  0  0
  137.0940  136.7310  152.1200 C   0  0  0  0  0  2  0  0  0  0  0  0
  137.3150  137.0270  153.5990 C   0  0  0  0  0  2  0  0  0  0  0  0
  135.7330  135.5400  156.7350 C   0  0  0  0  0  0  0  0  0  0  0  0
  136.5730  136.2710  155.8880 C   0  0  0  0  0  3  0  0  0  0  0  0
  136.3800  136.2610  154.4970 C   0  0  0  0  0  0  0  0  0  0  0  0
  135.3160  135.5260  153.9580 C   0  0  0  0  0  3  0  0  0  0  0  0
  134.4730  134.7920  154.7910 C   0  0  0  0  0  3  0  0  0  0  0  0
  134.6870  134.7990  156.1690 C   0  0  0  0  0  0  0  0  0  0  0  0
  136.4220  136.6110  158.7490 C   0  0  0  0  0  1  0  0  0  0  0  0
  135.8560  135.4830  158.0990 O   0  0  0  0  0  0  0  0  0  0  0  0
  133.8650  134.0690  156.9860 O   0  0  0  0  0  0  0  0  0  0  0  0
  134.2200  133.3850  157.5190 H   0  0  0  0  0  0  0  0  0  0  0  0
  141.5240  137.6370  152.3460 C   0  0  0  0  0  2  0  0  0  0  0  0
  142.1340  138.4120  153.5140 C   0  0  0  0  0  2  0  0  0  0  0  0
  143.5770  138.3210  153.5370 N   0  0  0  0  0  0  0  0  0  0  0  0
  144.3270  139.0230  154.4550 C   0  0  0  0  0  0  0  0  0  0  0  0
  143.8460  139.8050  155.2650 O   0  0  0  0  0  0  0  0  0  0  0  0
  144.0330  137.7450  152.8820 H   0  0  0  0  0  0  0  0  0  0  0  0
  145.8130  138.7320  154.4010 C   0  0  0  0  0  2  0  0  0  0  0  0
  146.6220  140.0190  154.2860 C   0  0  0  0  0  2  0  0  0  0  0  0
  146.5100  140.6620  152.9270 C   0  0  0  0  0  0  0  0  0  0  0  0
  146.0820  141.9870  152.8070 C   0  0  0  0  0  3  0  0  0  0  0  0
  145.9590  142.5750  151.5480 C   0  0  0  0  0  3  0  0  0  0  0  0
  146.2680  141.8480  150.3930 C   0  0  0  0  0  0  0  0  0  0  0  0
  146.7030  140.5230  150.4880 C   0  0  0  0  0  0  0  0  0  0  0  0
  146.8230  139.9470  151.7620 C   0  0  0  0  0  3  0  0  0  0  0  0
  146.1290  142.4730  149.1860 O   0  0  0  0  0  0  0  0  0  0  0  0
  146.5340  143.3050  149.0400 H   0  0  0  0  0  0  0  0  0  0  0  0
  147.0380  139.6650  149.4750 O   0  0  0  0  0  0  0  0  0  0  0  0
  145.9850  139.0930  148.7100 C   0  0  0  0  0  1  0  0  0  0  0  0
  1  2  1  0  0  0  0
  1 19  1  0  0  0  0
  2  5  1  0  0  0  0
  3  5  1  0  0  0  0
  3  7  1  0  0  0  0
  4  3  2  0  0  0  0
  5  6  1  0  0  0  0
  7  8  1  0  0  0  0
  8 11  1  0  0  0  0
  9 16  1  0  0  0  0
 10  9  2  0  0  0  0
 11 10  1  0  0  0  0
 12 11  2  0  0  0  0
 12 13  1  0  0  0  0
 13 14  2  0  0  0  0
 14  9  1  0  0  0  0
 14 17  1  0  0  0  0
 16 15  1  0  0  0  0
 17 18  1  0  0  0  0
 19 20  1  0  0  0  0
 20 21  1  0  0  0  0
 21 22  1  0  0  0  0
 22 23  2  0  0  0  0
 24 21  1  0  0  0  0
 25 22  1  0  0  0  0
 26 25  1  0  0  0  0
 27 26  1  0  0  0  0
 28 27  1  0  0  0  0
 29 28  2  0  0  0  0
 30 31  2  0  0  0  0
 30 29  1  0  0  0  0
 31 32  1  0  0  0  0
 32 27  2  0  0  0  0
 33 30  1  0  0  0  0
 34 33  1  0  0  0  0
 35 31  1  0  0  0  0
 36 35  1  0  0  0  0
M  END
>  <MODEL>
2

>  <REMARK>
 VINA RESULT:    -6.967      3.848      8.940
 INTER + INTRA:         -13.965
 INTER:                 -12.761
 INTRA:                  -1.203
 UNBOUND:                -1.296
  Name = CHEMBL1950103
  17 active torsions:
  status: ('A' for Active; 'I' for Inactive)
    1  A    between atoms: C_1  and  O_2
    2  A    between atoms: O_2  and  C_3
    3  A    between atoms: C_5  and  C_6
    4  A    between atoms: C_6  and  C_7
    5  A    between atoms: C_7  and  C_8
    6  A    between atoms: N_10  and  C_11
    7  A    between atoms: C_11  and  C_12
    8  A    between atoms: C_12  and  C_13
    9  A    between atoms: C_13  and  C_14
   10  A    between atoms: C_14  and  N_15
   11  A    between atoms: C_16  and  C_18
   12  A    between atoms: C_18  and  C_19
   13  A    between atoms: C_19  and  C_20
   14  A    between atoms: C_23  and  O_24
   15  A    between atoms: C_25  and  O_26
   16  A    between atoms: O_26  and  C_27
   17  A    between atoms: C_31  and  O_32
                            x       y       z     vdW  Elec       q    Type
                         _______ _______ _______ _____ _____    ______ ____

>  <TORSDO>
F 15

>  <SCORE>
-6.967

>  <RMSD_LB>
3.848

>  <RMSD_UB>
8.940

$$$$
CHEMBL1950103
 OpenBabel10172500503D

 36 37  0  0  0  0  0  0  0  0999 V2000
  140.7310  138.9690  150.8360 C   0  0  0  0  0  2  0  0  0  0  0  0
  139.5000  139.3020  151.6800 C   0  0  0  0  0  2  0  0  0  0  0  0
  138.0340  137.5920  152.6780 C   0  0  0  0  0  0  0  0  0  0  0  0
  138.4970  137.7430  153.8030 O   0  0  0  0  0  0  0  0  0  0  0  0
  138.4740  138.2890  151.5730 N   0  0  0  0  0  0  0  0  0  0  0  0
  138.0820  138.0930  150.6920 H   0  0  0  0  0  0  0  0  0  0  0  0
  136.9050  136.6260  152.3940 C   0  0  0  0  0  2  0  0  0  0  0  0
  136.9930  136.0930  150.9690 C   0  0  0  0  0  2  0  0  0  0  0  0
  133.6460  135.4200  149.2670 C   0  0  0  0  0  0  0  0  0  0  0  0
  134.8350  136.0420  149.6640 C   0  0  0  0  0  3  0  0  0  0  0  0
  135.7340  135.3940  150.5260 C   0  0  0  0  0  0  0  0  0  0  0  0
  135.4440  134.0980  150.9720 C   0  0  0  0  0  3  0  0  0  0  0  0
  134.2620  133.4680  150.5850 C   0  0  0  0  0  3  0  0  0  0  0  0
  133.3700  134.1300  149.7420 C   0  0  0  0  0  0  0  0  0  0  0  0
  133.1660  136.9190  147.4780 C   0  0  0  0  0  1  0  0  0  0  0  0
  132.7070  135.9820  148.4410 O   0  0  0  0  0  0  0  0  0  0  0  0
  132.2040  133.5140  149.3700 O   0  0  0  0  0  0  0  0  0  0  0  0
  131.3790  133.9010  149.5900 H   0  0  0  0  0  0  0  0  0  0  0  0
  141.4860  137.7470  151.3670 C   0  0  0  0  0  2  0  0  0  0  0  0
  141.9000  137.9120  152.8290 C   0  0  0  0  0  2  0  0  0  0  0  0
  143.3000  138.2430  152.9680 N   0  0  0  0  0  0  0  0  0  0  0  0
  143.7620  138.9840  154.0350 C   0  0  0  0  0  0  0  0  0  0  0  0
  143.0310  139.4580  154.8960 O   0  0  0  0  0  0  0  0  0  0  0  0
  143.9380  137.9330  152.2850 H   0  0  0  0  0  0  0  0  0  0  0  0
  145.2670  139.1500  154.0750 C   0  0  0  0  0  2  0  0  0  0  0  0
  145.6650  140.6110  153.8890 C   0  0  0  0  0  2  0  0  0  0  0  0
  145.8680  140.9830  152.4420 C   0  0  0  0  0  0  0  0  0  0  0  0
  145.7850  142.3180  152.0390 C   0  0  0  0  0  3  0  0  0  0  0  0
  145.9540  142.6590  150.6970 C   0  0  0  0  0  3  0  0  0  0  0  0
  146.2130  141.6710  149.7410 C   0  0  0  0  0  0  0  0  0  0  0  0
  146.3060  140.3280  150.1220 C   0  0  0  0  0  0  0  0  0  0  0  0
  146.1360  140.0020  151.4750 C   0  0  0  0  0  3  0  0  0  0  0  0
  146.3690  142.0610  148.4410 O   0  0  0  0  0  0  0  0  0  0  0  0
  146.9740  142.7420  148.2260 H   0  0  0  0  0  0  0  0  0  0  0  0
  146.5420  139.2370  149.3290 O   0  0  0  0  0  0  0  0  0  0  0  0
  146.7380  137.9810  149.9650 C   0  0  0  0  0  1  0  0  0  0  0  0
  1 19  1  0  0  0  0
  1  2  1  0  0  0  0
  3  4  2  0  0  0  0
  5  2  1  0  0  0  0
  5  3  1  0  0  0  0
  6  5  1  0  0  0  0
  7  3  1  0  0  0  0
  8  7  1  0  0  0  0
  9 10  2  0  0  0  0
  9 14  1  0  0  0  0
 10 11  1  0  0  0  0
 11  8  1  0  0  0  0
 11 12  2  0  0  0  0
 13 12  1  0  0  0  0
 14 13  2  0  0  0  0
 15 16  1  0  0  0  0
 16  9  1  0  0  0  0
 17 18  1  0  0  0  0
 17 14  1  0  0  0  0
 19 20  1  0  0  0  0
 20 21  1  0  0  0  0
 21 22  1  0  0  0  0
 22 25  1  0  0  0  0
 22 23  2  0  0  0  0
 24 21  1  0  0  0  0
 26 25  1  0  0  0  0
 27 26  1  0  0  0  0
 28 27  1  0  0  0  0
 29 28  2  0  0  0  0
 30 31  2  0  0  0  0
 30 29  1  0  0  0  0
 31 32  1  0  0  0  0
 32 27  2  0  0  0  0
 33 30  1  0  0  0  0
 34 33  1  0  0  0  0
 35 36  1  0  0  0  0
 35 31  1  0  0  0  0
M  END
>  <MODEL>
3

>  <REMARK>
 VINA RESULT:    -6.874      3.888      8.370
 INTER + INTRA:         -13.796
 INTER:                 -12.620
 INTRA:                  -1.176
 UNBOUND:                -1.296
  Name = CHEMBL1950103
  17 active torsions:
  status: ('A' for Active; 'I' for Inactive)
    1  A    between atoms: C_1  and  O_2
    2  A    between atoms: O_2  and  C_3
    3  A    between atoms: C_5  and  C_6
    4  A    between atoms: C_6  and  C_7
    5  A    between atoms: C_7  and  C_8
    6  A    between atoms: N_10  and  C_11
    7  A    between atoms: C_11  and  C_12
    8  A    between atoms: C_12  and  C_13
    9  A    between atoms: C_13  and  C_14
   10  A    between atoms: C_14  and  N_15
   11  A    between atoms: C_16  and  C_18
   12  A    between atoms: C_18  and  C_19
   13  A    between atoms: C_19  and  C_20
   14  A    between atoms: C_23  and  O_24
   15  A    between atoms: C_25  and  O_26
   16  A    between atoms: O_26  and  C_27
   17  A    between atoms: C_31  and  O_32
                            x       y       z     vdW  Elec       q    Type
                         _______ _______ _______ _____ _____    ______ ____

>  <TORSDO>
F 15

>  <SCORE>
-6.874

>  <RMSD_LB>
3.888

>  <RMSD_UB>
8.370

$$$$
CHEMBL1950103
 OpenBabel10172500503D

 36 37  0  0  0  0  0  0  0  0999 V2000
  133.8220  137.2910  146.5050 C   0  0  0  0  0  2  0  0  0  0  0  0
  133.5260  135.9130  145.9110 C   0  0  0  0  0  2  0  0  0  0  0  0
  134.2070  133.7630  146.9010 C   0  0  0  0  0  0  0  0  0  0  0  0
  135.0160  133.5230  146.0110 O   0  0  0  0  0  0  0  0  0  0  0  0
  133.4160  134.8920  146.9270 N   0  0  0  0  0  0  0  0  0  0  0  0
  132.7620  135.0040  147.6540 H   0  0  0  0  0  0  0  0  0  0  0  0
  134.0110  132.8390  148.0820 C   0  0  0  0  0  2  0  0  0  0  0  0
  132.8280  133.2880  148.9310 C   0  0  0  0  0  2  0  0  0  0  0  0
  134.3740  134.4130  152.2320 C   0  0  0  0  0  0  0  0  0  0  0  0
  134.0130  133.6270  151.1330 C   0  0  0  0  0  3  0  0  0  0  0  0
  133.2360  134.1600  150.0910 C   0  0  0  0  0  0  0  0  0  0  0  0
  132.8390  135.5020  150.1480 C   0  0  0  0  0  3  0  0  0  0  0  0
  133.1910  136.2950  151.2390 C   0  0  0  0  0  3  0  0  0  0  0  0
  133.9490  135.7480  152.2740 C   0  0  0  0  0  0  0  0  0  0  0  0
  134.4120  133.4070  154.3920 C   0  0  0  0  0  1  0  0  0  0  0  0
  135.1170  133.9740  153.2970 O   0  0  0  0  0  0  0  0  0  0  0  0
  134.2860  136.5250  153.3510 O   0  0  0  0  0  0  0  0  0  0  0  0
  133.6630  137.1280  153.7070 H   0  0  0  0  0  0  0  0  0  0  0  0
  134.6210  137.2010  147.8090 C   0  0  0  0  0  2  0  0  0  0  0  0
  136.0970  137.5460  147.6090 C   0  0  0  0  0  2  0  0  0  0  0  0
  136.9320  137.0050  148.6580 N   0  0  0  0  0  0  0  0  0  0  0  0
  137.7150  137.8210  149.4470 C   0  0  0  0  0  0  0  0  0  0  0  0
  137.8070  139.0310  149.2850 O   0  0  0  0  0  0  0  0  0  0  0  0
  136.9420  136.0330  148.8120 H   0  0  0  0  0  0  0  0  0  0  0  0
  138.4460  137.0980  150.5590 C   0  0  0  0  0  2  0  0  0  0  0  0
  137.8100  137.3870  151.9150 C   0  0  0  0  0  2  0  0  0  0  0  0
  138.8250  137.7400  152.9740 C   0  0  0  0  0  0  0  0  0  0  0  0
  138.4230  137.9430  154.2960 C   0  0  0  0  0  3  0  0  0  0  0  0
  139.3590  138.2890  155.2700 C   0  0  0  0  0  3  0  0  0  0  0  0
  140.7100  138.4300  154.9370 C   0  0  0  0  0  0  0  0  0  0  0  0
  141.1380  138.2270  153.6210 C   0  0  0  0  0  0  0  0  0  0  0  0
  140.1840  137.8770  152.6540 C   0  0  0  0  0  3  0  0  0  0  0  0
  141.5840  138.7700  155.9310 O   0  0  0  0  0  0  0  0  0  0  0  0
  141.6180  138.2650  156.7190 H   0  0  0  0  0  0  0  0  0  0  0  0
  142.4060  138.3290  153.1160 O   0  0  0  0  0  0  0  0  0  0  0  0
  142.7520  137.5080  152.0090 C   0  0  0  0  0  1  0  0  0  0  0  0
  1 19  1  0  0  0  0
  2  1  1  0  0  0  0
  2  5  1  0  0  0  0
  3  5  1  0  0  0  0
  3  7  1  0  0  0  0
  4  3  2  0  0  0  0
  5  6  1  0  0  0  0
  7  8  1  0  0  0  0
  8 11  1  0  0  0  0
  9 14  1  0  0  0  0
  9 16  1  0  0  0  0
 10  9  2  0  0  0  0
 11 12  2  0  0  0  0
 11 10  1  0  0  0  0
 12 13  1  0  0  0  0
 13 14  2  0  0  0  0
 14 17  1  0  0  0  0
 16 15  1  0  0  0  0
 17 18  1  0  0  0  0
 20 19  1  0  0  0  0
 20 21  1  0  0  0  0
 21 24  1  0  0  0  0
 21 22  1  0  0  0  0
 22 25  1  0  0  0  0
 23 22  2  0  0  0  0
 25 26  1  0  0  0  0
 26 27  1  0  0  0  0
 27 28  1  0  0  0  0
 28 29  2  0  0  0  0
 30 29  1  0  0  0  0
 30 33  1  0  0  0  0
 31 30  2  0  0  0  0
 32 27  2  0  0  0  0
 32 31  1  0  0  0  0
 33 34  1  0  0  0  0
 35 31  1  0  0  0  0
 36 35  1  0  0  0  0
M  END
>  <MODEL>
4

>  <REMARK>
 VINA RESULT:    -6.826      3.485      6.844
 INTER + INTRA:         -13.709
 INTER:                 -12.430
 INTRA:                  -1.279
 UNBOUND:                -1.296
  Name = CHEMBL1950103
  17 active torsions:
  status: ('A' for Active; 'I' for Inactive)
    1  A    between atoms: C_1  and  O_2
    2  A    between atoms: O_2  and  C_3
    3  A    between atoms: C_5  and  C_6
    4  A    between atoms: C_6  and  C_7
    5  A    between atoms: C_7  and  C_8
    6  A    between atoms: N_10  and  C_11
    7  A    between atoms: C_11  and  C_12
    8  A    between atoms: C_12  and  C_13
    9  A    between atoms: C_13  and  C_14
   10  A    between atoms: C_14  and  N_15
   11  A    between atoms: C_16  and  C_18
   12  A    between atoms: C_18  and  C_19
   13  A    between atoms: C_19  and  C_20
   14  A    between atoms: C_23  and  O_24
   15  A    between atoms: C_25  and  O_26
   16  A    between atoms: O_26  and  C_27
   17  A    between atoms: C_31  and  O_32
                            x       y       z     vdW  Elec       q    Type
                         _______ _______ _______ _____ _____    ______ ____

>  <TORSDO>
F 15

>  <SCORE>
-6.826

>  <RMSD_LB>
3.485

>  <RMSD_UB>
6.844

$$$$
CHEMBL1950103
 OpenBabel10172500503D

 36 37  0  0  0  0  0  0  0  0999 V2000
  144.6310  137.4430  146.5220 C   0  0  0  0  0  2  0  0  0  0  0  0
  144.9530  136.2000  147.3530 C   0  0  0  0  0  2  0  0  0  0  0  0
  145.3610  136.9420  149.6670 C   0  0  0  0  0  0  0  0  0  0  0  0
  146.4880  137.3520  149.4170 O   0  0  0  0  0  0  0  0  0  0  0  0
  144.5440  136.3430  148.7320 N   0  0  0  0  0  0  0  0  0  0  0  0
  143.6620  136.0050  149.0090 H   0  0  0  0  0  0  0  0  0  0  0  0
  144.7410  137.0740  151.0400 C   0  0  0  0  0  2  0  0  0  0  0  0
  144.0320  138.4150  151.1880 C   0  0  0  0  0  2  0  0  0  0  0  0
  140.9750  138.6380  153.4570 C   0  0  0  0  0  0  0  0  0  0  0  0
  142.2730  138.7830  152.9590 C   0  0  0  0  0  3  0  0  0  0  0  0
  142.6200  138.2790  151.6940 C   0  0  0  0  0  0  0  0  0  0  0  0
  141.6420  137.6450  150.9170 C   0  0  0  0  0  3  0  0  0  0  0  0
  140.3440  137.4930  151.4040 C   0  0  0  0  0  3  0  0  0  0  0  0
  140.0190  137.9840  152.6680 C   0  0  0  0  0  0  0  0  0  0  0  0
  140.7290  138.2130  155.7890 C   0  0  0  0  0  1  0  0  0  0  0  0
  140.5530  139.0860  154.6830 O   0  0  0  0  0  0  0  0  0  0  0  0
  138.7470  137.8240  153.1500 O   0  0  0  0  0  0  0  0  0  0  0  0
  138.0480  137.6040  152.5660 H   0  0  0  0  0  0  0  0  0  0  0  0
  145.7750  137.8210  145.5760 C   0  0  0  0  0  2  0  0  0  0  0  0
  146.3370  139.2110  145.8720 C   0  0  0  0  0  2  0  0  0  0  0  0
  146.1500  139.5930  147.2540 N   0  0  0  0  0  0  0  0  0  0  0  0
  146.2790  140.9040  147.6610 C   0  0  0  0  0  0  0  0  0  0  0  0
  146.6120  141.8150  146.9140 O   0  0  0  0  0  0  0  0  0  0  0  0
  145.9250  138.9030  147.9190 H   0  0  0  0  0  0  0  0  0  0  0  0
  145.9500  141.1390  149.1210 C   0  0  0  0  0  2  0  0  0  0  0  0
  146.9020  142.1550  149.7430 C   0  0  0  0  0  2  0  0  0  0  0  0
  147.4100  141.7280  151.0980 C   0  0  0  0  0  0  0  0  0  0  0  0
  148.5590  142.3130  151.6360 C   0  0  0  0  0  3  0  0  0  0  0  0
  149.0400  141.9030  152.8790 C   0  0  0  0  0  3  0  0  0  0  0  0
  148.3750  140.9080  153.6040 C   0  0  0  0  0  0  0  0  0  0  0  0
  147.2200  140.3120  153.0880 C   0  0  0  0  0  0  0  0  0  0  0  0
  146.7480  140.7370  151.8380 C   0  0  0  0  0  3  0  0  0  0  0  0
  148.8900  140.5450  154.8160 O   0  0  0  0  0  0  0  0  0  0  0  0
  149.7800  140.7450  155.0260 H   0  0  0  0  0  0  0  0  0  0  0  0
  146.4510  139.3270  153.6490 O   0  0  0  0  0  0  0  0  0  0  0  0
  145.3890  139.7180  154.5090 C   0  0  0  0  0  1  0  0  0  0  0  0
  1  2  1  0  0  0  0
  2  5  1  0  0  0  0
  3  7  1  0  0  0  0
  4  3  2  0  0  0  0
  5  6  1  0  0  0  0
  5  3  1  0  0  0  0
  7  8  1  0  0  0  0
  8 11  1  0  0  0  0
  9 16  1  0  0  0  0
 10  9  1  0  0  0  0
 11 10  2  0  0  0  0
 12 13  2  0  0  0  0
 12 11  1  0  0  0  0
 13 14  1  0  0  0  0
 14 17  1  0  0  0  0
 14  9  2  0  0  0  0
 16 15  1  0  0  0  0
 18 17  1  0  0  0  0
 19 20  1  0  0  0  0
 19  1  1  0  0  0  0
 20 21  1  0  0  0  0
 21 22  1  0  0  0  0
 21 24  1  0  0  0  0
 22 25  1  0  0  0  0
 23 22  2  0  0  0  0
 25 26  1  0  0  0  0
 26 27  1  0  0  0  0
 27 28  2  0  0  0  0
 27 32  1  0  0  0  0
 28 29  1  0  0  0  0
 29 30  2  0  0  0  0
 30 33  1  0  0  0  0
 31 30  1  0  0  0  0
 31 35  1  0  0  0  0
 32 31  2  0  0  0  0
 33 34  1  0  0  0  0
 35 36  1  0  0  0  0
M  END
>  <MODEL>
5

>  <REMARK>
 VINA RESULT:    -6.682      5.580     10.366
 INTER + INTRA:         -13.447
 INTER:                 -11.317
 INTRA:                  -2.130
 UNBOUND:                -1.296
  Name = CHEMBL1950103
  17 active torsions:
  status: ('A' for Active; 'I' for Inactive)
    1  A    between atoms: C_1  and  O_2
    2  A    between atoms: O_2  and  C_3
    3  A    between atoms: C_5  and  C_6
    4  A    between atoms: C_6  and  C_7
    5  A    between atoms: C_7  and  C_8
    6  A    between atoms: N_10  and  C_11
    7  A    between atoms: C_11  and  C_12
    8  A    between atoms: C_12  and  C_13
    9  A    between atoms: C_13  and  C_14
   10  A    between atoms: C_14  and  N_15
   11  A    between atoms: C_16  and  C_18
   12  A    between atoms: C_18  and  C_19
   13  A    between atoms: C_19  and  C_20
   14  A    between atoms: C_23  and  O_24
   15  A    between atoms: C_25  and  O_26
   16  A    between atoms: O_26  and  C_27
   17  A    between atoms: C_31  and  O_32
                            x       y       z     vdW  Elec       q    Type
                         _______ _______ _______ _____ _____    ______ ____

>  <TORSDO>
F 15

>  <SCORE>
-6.682

>  <RMSD_LB>
5.580

>  <RMSD_UB>
10.366

$$$$
CHEMBL1950103
 OpenBabel10172500503D

 36 37  0  0  0  0  0  0  0  0999 V2000
  142.1430  136.5010  150.0730 C   0  0  0  0  0  2  0  0  0  0  0  0
  141.2850  137.7660  150.0280 C   0  0  0  0  0  2  0  0  0  0  0  0
  139.1240  137.5770  151.1960 C   0  0  0  0  0  0  0  0  0  0  0  0
  139.5990  137.8870  152.2830 O   0  0  0  0  0  0  0  0  0  0  0  0
  139.8710  137.4680  150.0430 N   0  0  0  0  0  0  0  0  0  0  0  0
  139.4320  137.1810  149.2100 H   0  0  0  0  0  0  0  0  0  0  0  0
  137.6490  137.3010  151.0100 C   0  0  0  0  0  2  0  0  0  0  0  0
  137.1050  136.4650  152.1630 C   0  0  0  0  0  2  0  0  0  0  0  0
  133.5600  135.7690  150.9400 C   0  0  0  0  0  0  0  0  0  0  0  0
  134.7550  136.4270  151.2460 C   0  0  0  0  0  3  0  0  0  0  0  0
  135.8370  135.7320  151.8080 C   0  0  0  0  0  0  0  0  0  0  0  0
  135.7210  134.3560  152.0420 C   0  0  0  0  0  3  0  0  0  0  0  0
  134.5340  133.6880  151.7430 C   0  0  0  0  0  3  0  0  0  0  0  0
  133.4620  134.3950  151.2000 C   0  0  0  0  0  0  0  0  0  0  0  0
  132.5990  136.9920  149.1340 C   0  0  0  0  0  1  0  0  0  0  0  0
  132.4510  136.3700  150.4020 O   0  0  0  0  0  0  0  0  0  0  0  0
  132.2930  133.7400  150.9160 O   0  0  0  0  0  0  0  0  0  0  0  0
  131.8330  133.9250  150.1210 H   0  0  0  0  0  0  0  0  0  0  0  0
  142.1870  135.7810  148.7220 C   0  0  0  0  0  2  0  0  0  0  0  0
  143.3890  134.8440  148.6030 C   0  0  0  0  0  2  0  0  0  0  0  0
  144.4360  135.1760  149.5430 N   0  0  0  0  0  0  0  0  0  0  0  0
  145.6860  135.5730  149.1170 C   0  0  0  0  0  0  0  0  0  0  0  0
  146.0160  135.6170  147.9390 O   0  0  0  0  0  0  0  0  0  0  0  0
  144.2530  135.1170  150.5090 H   0  0  0  0  0  0  0  0  0  0  0  0
  146.6260  135.9780  150.2340 C   0  0  0  0  0  2  0  0  0  0  0  0
  145.9290  135.9210  151.5890 C   0  0  0  0  0  2  0  0  0  0  0  0
  146.2970  137.0750  152.4870 C   0  0  0  0  0  0  0  0  0  0  0  0
  147.6250  137.5020  152.5790 C   0  0  0  0  0  3  0  0  0  0  0  0
  147.9670  138.5560  153.4240 C   0  0  0  0  0  3  0  0  0  0  0  0
  146.9870  139.2030  154.1840 C   0  0  0  0  0  0  0  0  0  0  0  0
  145.6510  138.7970  154.1050 C   0  0  0  0  0  0  0  0  0  0  0  0
  145.3230  137.7370  153.2480 C   0  0  0  0  0  3  0  0  0  0  0  0
  147.3790  140.2300  154.9960 O   0  0  0  0  0  0  0  0  0  0  0  0
  147.7970  140.0480  155.8140 H   0  0  0  0  0  0  0  0  0  0  0  0
  144.5700  139.3040  154.7760 O   0  0  0  0  0  0  0  0  0  0  0  0
  143.2860  139.1510  154.1850 C   0  0  0  0  0  1  0  0  0  0  0  0
  2  5  1  0  0  0  0
  2  1  1  0  0  0  0
  3  4  2  0  0  0  0
  5  3  1  0  0  0  0
  6  5  1  0  0  0  0
  7  3  1  0  0  0  0
  7  8  1  0  0  0  0
  9 14  2  0  0  0  0
  9 10  1  0  0  0  0
 10 11  2  0  0  0  0
 11 12  1  0  0  0  0
 11  8  1  0  0  0  0
 13 12  2  0  0  0  0
 14 13  1  0  0  0  0
 15 16  1  0  0  0  0
 16  9  1  0  0  0  0
 17 14  1  0  0  0  0
 18 17  1  0  0  0  0
 19  1  1  0  0  0  0
 20 19  1  0  0  0  0
 20 21  1  0  0  0  0
 21 24  1  0  0  0  0
 22 21  1  0  0  0  0
 22 25  1  0  0  0  0
 23 22  2  0  0  0  0
 25 26  1  0  0  0  0
 26 27  1  0  0  0  0
 27 28  2  0  0  0  0
 27 32  1  0  0  0  0
 28 29  1  0  0  0  0
 29 30  2  0  0  0  0
 30 33  1  0  0  0  0
 31 30  1  0  0  0  0
 31 35  1  0  0  0  0
 32 31  2  0  0  0  0
 33 34  1  0  0  0  0
 36 35  1  0  0  0  0
M  END
>  <MODEL>
6

>  <REMARK>
 VINA RESULT:    -6.611      4.133      7.771
 INTER + INTRA:         -13.318
 INTER:                 -12.128
 INTRA:                  -1.190
 UNBOUND:                -1.296
  Name = CHEMBL1950103
  17 active torsions:
  status: ('A' for Active; 'I' for Inactive)
    1  A    between atoms: C_1  and  O_2
    2  A    between atoms: O_2  and  C_3
    3  A    between atoms: C_5  and  C_6
    4  A    between atoms: C_6  and  C_7
    5  A    between atoms: C_7  and  C_8
    6  A    between atoms: N_10  and  C_11
    7  A    between atoms: C_11  and  C_12
    8  A    between atoms: C_12  and  C_13
    9  A    between atoms: C_13  and  C_14
   10  A    between atoms: C_14  and  N_15
   11  A    between atoms: C_16  and  C_18
   12  A    between atoms: C_18  and  C_19
   13  A    between atoms: C_19  and  C_20
   14  A    between atoms: C_23  and  O_24
   15  A    between atoms: C_25  and  O_26
   16  A    between atoms: O_26  and  C_27
   17  A    between atoms: C_31  and  O_32
                            x       y       z     vdW  Elec       q    Type
                         _______ _______ _______ _____ _____    ______ ____

>  <TORSDO>
F 15

>  <SCORE>
-6.611

>  <RMSD_LB>
4.133

>  <RMSD_UB>
7.771

$$$$
CHEMBL1950103
 OpenBabel10172500503D

 36 37  0  0  0  0  0  0  0  0999 V2000
  144.8470  137.1100  153.7520 C   0  0  0  0  0  2  0  0  0  0  0  0
  145.2070  136.8580  152.2870 C   0  0  0  0  0  2  0  0  0  0  0  0
  144.1130  136.5690  150.0990 C   0  0  0  0  0  0  0  0  0  0  0  0
  145.1220  136.1170  149.5690 O   0  0  0  0  0  0  0  0  0  0  0  0
  144.0620  136.9810  151.4140 N   0  0  0  0  0  0  0  0  0  0  0  0
  143.2280  137.3660  151.7650 H   0  0  0  0  0  0  0  0  0  0  0  0
  142.8030  136.7020  149.3550 C   0  0  0  0  0  2  0  0  0  0  0  0
  141.6730  137.0670  150.3100 C   0  0  0  0  0  2  0  0  0  0  0  0
  137.8960  136.5950  150.0560 C   0  0  0  0  0  0  0  0  0  0  0  0
  139.1550  137.0420  150.4700 C   0  0  0  0  0  3  0  0  0  0  0  0
  140.3230  136.6010  149.8280 C   0  0  0  0  0  0  0  0  0  0  0  0
  140.2190  135.7190  148.7440 C   0  0  0  0  0  3  0  0  0  0  0  0
  138.9700  135.2640  148.3230 C   0  0  0  0  0  3  0  0  0  0  0  0
  137.8200  135.6990  148.9810 C   0  0  0  0  0  0  0  0  0  0  0  0
  136.2760  136.2210  151.7630 C   0  0  0  0  0  1  0  0  0  0  0  0
  136.7070  136.9630  150.6310 O   0  0  0  0  0  0  0  0  0  0  0  0
  136.5930  135.2440  148.5730 O   0  0  0  0  0  0  0  0  0  0  0  0
  136.0430  135.7880  148.0450 H   0  0  0  0  0  0  0  0  0  0  0  0
  144.0140  138.3820  153.9350 C   0  0  0  0  0  2  0  0  0  0  0  0
  144.5940  139.3050  155.0070 C   0  0  0  0  0  2  0  0  0  0  0  0
  145.8640  139.8710  154.6130 N   0  0  0  0  0  0  0  0  0  0  0  0
  147.0530  139.3900  155.1180 C   0  0  0  0  0  0  0  0  0  0  0  0
  147.1210  138.5070  155.9640 O   0  0  0  0  0  0  0  0  0  0  0  0
  145.8800  140.6170  153.9710 H   0  0  0  0  0  0  0  0  0  0  0  0
  148.2890  140.0320  154.5210 C   0  0  0  0  0  2  0  0  0  0  0  0
  148.5790  139.4800  153.1300 C   0  0  0  0  0  2  0  0  0  0  0  0
  147.9610  140.3080  152.0310 C   0  0  0  0  0  0  0  0  0  0  0  0
  148.4620  141.5790  151.7390 C   0  0  0  0  0  3  0  0  0  0  0  0
  147.8770  142.3520  150.7370 C   0  0  0  0  0  3  0  0  0  0  0  0
  146.7870  141.8620  150.0090 C   0  0  0  0  0  0  0  0  0  0  0  0
  146.2710  140.5910  150.2790 C   0  0  0  0  0  0  0  0  0  0  0  0
  146.8720  139.8260  151.2890 C   0  0  0  0  0  3  0  0  0  0  0  0
  146.2530  142.6620  149.0380 O   0  0  0  0  0  0  0  0  0  0  0  0
  145.4250  143.0780  149.1760 H   0  0  0  0  0  0  0  0  0  0  0  0
  145.2150  139.9590  149.6800 O   0  0  0  0  0  0  0  0  0  0  0  0
  143.9020  140.3130  150.0970 C   0  0  0  0  0  1  0  0  0  0  0  0
  1 19  1  0  0  0  0
  2  1  1  0  0  0  0
  3  5  1  0  0  0  0
  4  3  2  0  0  0  0
  5  6  1  0  0  0  0
  5  2  1  0  0  0  0
  7  3  1  0  0  0  0
  7  8  1  0  0  0  0
  9 10  1  0  0  0  0
  9 16  1  0  0  0  0
 11  8  1  0  0  0  0
 11 10  2  0  0  0  0
 12 11  1  0  0  0  0
 13 12  2  0  0  0  0
 13 14  1  0  0  0  0
 14  9  2  0  0  0  0
 16 15  1  0  0  0  0
 17 14  1  0  0  0  0
 18 17  1  0  0  0  0
 19 20  1  0  0  0  0
 21 20  1  0  0  0  0
 21 22  1  0  0  0  0
 22 23  2  0  0  0  0
 24 21  1  0  0  0  0
 25 22  1  0  0  0  0
 26 25  1  0  0  0  0
 27 26  1  0  0  0  0
 28 27  1  0  0  0  0
 29 28  2  0  0  0  0
 30 31  2  0  0  0  0
 30 29  1  0  0  0  0
 31 32  1  0  0  0  0
 32 27  2  0  0  0  0
 33 34  1  0  0  0  0
 33 30  1  0  0  0  0
 35 36  1  0  0  0  0
 35 31  1  0  0  0  0
M  END
>  <MODEL>
7

>  <REMARK>
 VINA RESULT:    -6.600      4.757      9.245
 INTER + INTRA:         -13.297
 INTER:                 -11.680
 INTRA:                  -1.617
 UNBOUND:                -1.296
  Name = CHEMBL1950103
  17 active torsions:
  status: ('A' for Active; 'I' for Inactive)
    1  A    between atoms: C_1  and  O_2
    2  A    between atoms: O_2  and  C_3
    3  A    between atoms: C_5  and  C_6
    4  A    between atoms: C_6  and  C_7
    5  A    between atoms: C_7  and  C_8
    6  A    between atoms: N_10  and  C_11
    7  A    between atoms: C_11  and  C_12
    8  A    between atoms: C_12  and  C_13
    9  A    between atoms: C_13  and  C_14
   10  A    between atoms: C_14  and  N_15
   11  A    between atoms: C_16  and  C_18
   12  A    between atoms: C_18  and  C_19
   13  A    between atoms: C_19  and  C_20
   14  A    between atoms: C_23  and  O_24
   15  A    between atoms: C_25  and  O_26
   16  A    between atoms: O_26  and  C_27
   17  A    between atoms: C_31  and  O_32
                            x       y       z     vdW  Elec       q    Type
                         _______ _______ _______ _____ _____    ______ ____

>  <TORSDO>
F 15

>  <SCORE>
-6.600

>  <RMSD_LB>
4.757

>  <RMSD_UB>
9.245

$$$$
CHEMBL1950103
 OpenBabel10172500503D

 36 37  0  0  0  0  0  0  0  0999 V2000
  138.2040  138.5180  146.9450 C   0  0  0  0  0  2  0  0  0  0  0  0
  137.6380  139.2660  148.1530 C   0  0  0  0  0  2  0  0  0  0  0  0
  138.7800  139.0750  150.3280 C   0  0  0  0  0  0  0  0  0  0  0  0
  139.4310  140.1000  150.1620 O   0  0  0  0  0  0  0  0  0  0  0  0
  137.8970  138.5740  149.3950 N   0  0  0  0  0  0  0  0  0  0  0  0
  137.4320  137.7260  149.5790 H   0  0  0  0  0  0  0  0  0  0  0  0
  138.8690  138.2600  151.5990 C   0  0  0  0  0  2  0  0  0  0  0  0
  140.1970  137.5170  151.6740 C   0  0  0  0  0  2  0  0  0  0  0  0
  143.3350  139.2980  152.9140 C   0  0  0  0  0  0  0  0  0  0  0  0
  142.3870  138.7050  152.0730 C   0  0  0  0  0  3  0  0  0  0  0  0
  141.1910  138.1820  152.5910 C   0  0  0  0  0  0  0  0  0  0  0  0
  140.9390  138.2790  153.9660 C   0  0  0  0  0  3  0  0  0  0  0  0
  141.8770  138.8650  154.8140 C   0  0  0  0  0  3  0  0  0  0  0  0
  143.0670  139.3660  154.2880 C   0  0  0  0  0  0  0  0  0  0  0  0
  144.4980  140.7350  151.4110 C   0  0  0  0  0  1  0  0  0  0  0  0
  144.5320  139.8210  152.4970 O   0  0  0  0  0  0  0  0  0  0  0  0
  143.9920  139.9330  155.1240 O   0  0  0  0  0  0  0  0  0  0  0  0
  143.7110  140.4410  155.8590 H   0  0  0  0  0  0  0  0  0  0  0  0
  137.2530  138.5520  145.7440 C   0  0  0  0  0  2  0  0  0  0  0  0
  135.8720  139.0940  146.1140 C   0  0  0  0  0  2  0  0  0  0  0  0
  134.9950  138.0590  146.6140 N   0  0  0  0  0  0  0  0  0  0  0  0
  133.6650  138.0080  146.2540 C   0  0  0  0  0  0  0  0  0  0  0  0
  133.1230  138.8480  145.5470 O   0  0  0  0  0  0  0  0  0  0  0  0
  135.3540  137.3770  147.2260 H   0  0  0  0  0  0  0  0  0  0  0  0
  132.9190  136.8030  146.7900 C   0  0  0  0  0  2  0  0  0  0  0  0
  132.5520  136.9910  148.2580 C   0  0  0  0  0  2  0  0  0  0  0  0
  133.4620  136.2310  149.1900 C   0  0  0  0  0  0  0  0  0  0  0  0
  134.2820  135.2110  148.7010 C   0  0  0  0  0  3  0  0  0  0  0  0
  135.1080  134.4960  149.5670 C   0  0  0  0  0  3  0  0  0  0  0  0
  135.1310  134.7950  150.9340 C   0  0  0  0  0  0  0  0  0  0  0  0
  134.3230  135.8150  151.4460 C   0  0  0  0  0  0  0  0  0  0  0  0
  133.5000  136.5260  150.5610 C   0  0  0  0  0  3  0  0  0  0  0  0
  135.9590  134.0630  151.7370 O   0  0  0  0  0  0  0  0  0  0  0  0
  136.3000  133.2450  151.4360 H   0  0  0  0  0  0  0  0  0  0  0  0
  134.2100  136.2350  152.7450 O   0  0  0  0  0  0  0  0  0  0  0  0
  133.7120  135.3110  153.7040 C   0  0  0  0  0  1  0  0  0  0  0  0
  1  2  1  0  0  0  0
  2  5  1  0  0  0  0
  3  7  1  0  0  0  0
  4  3  2  0  0  0  0
  5  6  1  0  0  0  0
  5  3  1  0  0  0  0
  7  8  1  0  0  0  0
  8 11  1  0  0  0  0
  9 14  1  0  0  0  0
 10 11  1  0  0  0  0
 10  9  2  0  0  0  0
 11 12  2  0  0  0  0
 12 13  1  0  0  0  0
 14 13  2  0  0  0  0
 14 17  1  0  0  0  0
 15 16  1  0  0  0  0
 16  9  1  0  0  0  0
 17 18  1  0  0  0  0
 19 20  1  0  0  0  0
 19  1  1  0  0  0  0
 20 21  1  0  0  0  0
 21 24  1  0  0  0  0
 22 21  1  0  0  0  0
 22 25  1  0  0  0  0
 23 22  2  0  0  0  0
 25 26  1  0  0  0  0
 26 27  1  0  0  0  0
 27 32  1  0  0  0  0
 28 27  2  0  0  0  0
 28 29  1  0  0  0  0
 29 30  2  0  0  0  0
 30 31  1  0  0  0  0
 30 33  1  0  0  0  0
 31 35  1  0  0  0  0
 32 31  2  0  0  0  0
 34 33  1  0  0  0  0
 35 36  1  0  0  0  0
M  END
>  <MODEL>
8

>  <REMARK>
 VINA RESULT:    -6.509      3.809      8.370
 INTER + INTRA:         -13.133
 INTER:                 -12.091
 INTRA:                  -1.042
 UNBOUND:                -1.296
  Name = CHEMBL1950103
  17 active torsions:
  status: ('A' for Active; 'I' for Inactive)
    1  A    between atoms: C_1  and  O_2
    2  A    between atoms: O_2  and  C_3
    3  A    between atoms: C_5  and  C_6
    4  A    between atoms: C_6  and  C_7
    5  A    between atoms: C_7  and  C_8
    6  A    between atoms: N_10  and  C_11
    7  A    between atoms: C_11  and  C_12
    8  A    between atoms: C_12  and  C_13
    9  A    between atoms: C_13  and  C_14
   10  A    between atoms: C_14  and  N_15
   11  A    between atoms: C_16  and  C_18
   12  A    between atoms: C_18  and  C_19
   13  A    between atoms: C_19  and  C_20
   14  A    between atoms: C_23  and  O_24
   15  A    between atoms: C_25  and  O_26
   16  A    between atoms: O_26  and  C_27
   17  A    between atoms: C_31  and  O_32
                            x       y       z     vdW  Elec       q    Type
                         _______ _______ _______ _____ _____    ______ ____

>  <TORSDO>
F 15

>  <SCORE>
-6.509

>  <RMSD_LB>
3.809

>  <RMSD_UB>
8.370

$$$$
CHEMBL1950103
 OpenBabel10172500503D

 36 37  0  0  0  0  0  0  0  0999 V2000
  138.0080  135.1040  146.4950 C   0  0  0  0  0  2  0  0  0  0  0  0
  137.8380  136.2570  147.4860 C   0  0  0  0  0  2  0  0  0  0  0  0
  139.1310  136.6540  149.5450 C   0  0  0  0  0  0  0  0  0  0  0  0
  138.1580  136.5010  150.2750 O   0  0  0  0  0  0  0  0  0  0  0  0
  139.0700  136.5770  148.1700 N   0  0  0  0  0  0  0  0  0  0  0  0
  139.8830  136.7440  147.6420 H   0  0  0  0  0  0  0  0  0  0  0  0
  140.5150  136.9240  150.0920 C   0  0  0  0  0  2  0  0  0  0  0  0
  140.5780  138.2950  150.7530 C   0  0  0  0  0  2  0  0  0  0  0  0
  139.9640  138.5260  154.5110 C   0  0  0  0  0  0  0  0  0  0  0  0
  139.7650  138.5600  153.1270 C   0  0  0  0  0  3  0  0  0  0  0  0
  140.8010  138.2200  152.2410 C   0  0  0  0  0  0  0  0  0  0  0  0
  142.0400  137.8200  152.7570 C   0  0  0  0  0  3  0  0  0  0  0  0
  142.2520  137.7840  154.1340 C   0  0  0  0  0  3  0  0  0  0  0  0
  141.2190  138.1400  155.0010 C   0  0  0  0  0  0  0  0  0  0  0  0
  137.7000  138.3650  155.2340 C   0  0  0  0  0  1  0  0  0  0  0  0
  139.0170  138.8530  155.4460 O   0  0  0  0  0  0  0  0  0  0  0  0
  141.4320  138.1140  156.3540 O   0  0  0  0  0  0  0  0  0  0  0  0
  140.7200  138.2730  156.9430 H   0  0  0  0  0  0  0  0  0  0  0  0
  138.3790  135.5950  145.0920 C   0  0  0  0  0  2  0  0  0  0  0  0
  137.2590  135.3560  144.0800 C   0  0  0  0  0  2  0  0  0  0  0  0
  136.0410  134.8980  144.7100 N   0  0  0  0  0  0  0  0  0  0  0  0
  135.6330  133.5850  144.6170 C   0  0  0  0  0  0  0  0  0  0  0  0
  136.2250  132.7370  143.9610 O   0  0  0  0  0  0  0  0  0  0  0  0
  135.4910  135.5390  145.2150 H   0  0  0  0  0  0  0  0  0  0  0  0
  134.3900  133.2600  145.4200 C   0  0  0  0  0  2  0  0  0  0  0  0
  134.7440  132.8750  146.8520 C   0  0  0  0  0  2  0  0  0  0  0  0
  134.0930  133.7700  147.8770 C   0  0  0  0  0  0  0  0  0  0  0  0
  133.7250  133.2610  149.1250 C   0  0  0  0  0  3  0  0  0  0  0  0
  133.1050  134.0850  150.0650 C   0  0  0  0  0  3  0  0  0  0  0  0
  132.8510  135.4290  149.7720 C   0  0  0  0  0  0  0  0  0  0  0  0
  133.2160  135.9620  148.5310 C   0  0  0  0  0  0  0  0  0  0  0  0
  133.8400  135.1210  147.5990 C   0  0  0  0  0  3  0  0  0  0  0  0
  132.2420  136.1900  150.7290 O   0  0  0  0  0  0  0  0  0  0  0  0
  131.5850  135.8130  151.2790 H   0  0  0  0  0  0  0  0  0  0  0  0
  133.0390  137.2400  148.0720 O   0  0  0  0  0  0  0  0  0  0  0  0
  132.8530  137.4270  146.6760 C   0  0  0  0  0  1  0  0  0  0  0  0
  1  2  1  0  0  0  0
  2  5  1  0  0  0  0
  3  7  1  0  0  0  0
  3  4  2  0  0  0  0
  5  3  1  0  0  0  0
  6  5  1  0  0  0  0
  7  8  1  0  0  0  0
  8 11  1  0  0  0  0
  9 14  1  0  0  0  0
  9 16  1  0  0  0  0
 10  9  2  0  0  0  0
 11 12  2  0  0  0  0
 11 10  1  0  0  0  0
 12 13  1  0  0  0  0
 13 14  2  0  0  0  0
 14 17  1  0  0  0  0
 15 16  1  0  0  0  0
 17 18  1  0  0  0  0
 19  1  1  0  0  0  0
 20 21  1  0  0  0  0
 20 19  1  0  0  0  0
 21 24  1  0  0  0  0
 22 21  1  0  0  0  0
 22 25  1  0  0  0  0
 23 22  2  0  0  0  0
 25 26  1  0  0  0  0
 26 27  1  0  0  0  0
 27 28  1  0  0  0  0
 28 29  2  0  0  0  0
 30 29  1  0  0  0  0
 30 33  1  0  0  0  0
 31 30  2  0  0  0  0
 32 27  2  0  0  0  0
 32 31  1  0  0  0  0
 33 34  1  0  0  0  0
 35 31  1  0  0  0  0
 36 35  1  0  0  0  0
M  END
>  <MODEL>
9

>  <REMARK>
 VINA RESULT:    -6.443      3.560      8.977
 INTER + INTRA:         -13.013
 INTER:                 -11.717
 INTRA:                  -1.296
 UNBOUND:                -1.296
  Name = CHEMBL1950103
  17 active torsions:
  status: ('A' for Active; 'I' for Inactive)
    1  A    between atoms: C_1  and  O_2
    2  A    between atoms: O_2  and  C_3
    3  A    between atoms: C_5  and  C_6
    4  A    between atoms: C_6  and  C_7
    5  A    between atoms: C_7  and  C_8
    6  A    between atoms: N_10  and  C_11
    7  A    between atoms: C_11  and  C_12
    8  A    between atoms: C_12  and  C_13
    9  A    between atoms: C_13  and  C_14
   10  A    between atoms: C_14  and  N_15
   11  A    between atoms: C_16  and  C_18
   12  A    between atoms: C_18  and  C_19
   13  A    between atoms: C_19  and  C_20
   14  A    between atoms: C_23  and  O_24
   15  A    between atoms: C_25  and  O_26
   16  A    between atoms: O_26  and  C_27
   17  A    between atoms: C_31  and  O_32
                            x       y       z     vdW  Elec       q    Type
                         _______ _______ _______ _____ _____    ______ ____

>  <TORSDO>
F 15

>  <SCORE>
-6.443

>  <RMSD_LB>
3.560

>  <RMSD_UB>
8.977

$$$$
