CHEMBL414663
 OpenBabel10172500173D

 24 24  0  0  0  0  0  0  0  0999 V2000
  143.8910  139.1360  152.1830 C   0  0  0  0  0  0  0  0  0  0  0  0
  144.3220  137.9810  152.1850 O   0  0  0  0  0  0  0  0  0  0  0  0
  143.0650  139.6180  153.1730 N   0  0  0  0  0  0  0  0  0  0  0  0
  142.7680  140.5560  153.1480 H   0  0  0  0  0  0  0  0  0  0  0  0
  144.2740  140.1430  151.1170 C   0  0  0  0  0  2  0  0  0  0  0  0
  145.2310  141.1910  151.6870 C   0  0  0  0  0  2  0  0  0  0  0  0
  145.5790  142.2800  150.6750 C   0  0  0  0  0  2  0  0  0  0  0  0
  147.0860  142.5410  150.6540 C   0  0  0  0  0  2  0  0  0  0  0  0
  147.8440  141.4650  151.4280 C   0  0  0  0  0  2  0  0  0  0  0  0
  149.1040  142.0380  152.0720 C   0  0  0  0  0  2  0  0  0  0  0  0
  147.7680  141.7990  154.1830 C   0  0  0  0  0  1  0  0  0  0  0  0
  149.1520  141.7180  153.5630 C   0  0  0  0  0  2  0  0  0  0  0  0
  142.6300  138.7550  154.2510 C   0  0  0  0  0  2  0  0  0  0  0  0
  141.1470  138.4740  154.2050 C   0  0  0  0  0  0  0  0  0  0  0  0
  140.5280  138.1590  152.9900 C   0  0  0  0  0  3  0  0  0  0  0  0
  139.1560  137.9080  152.9430 C   0  0  0  0  0  0  0  0  0  0  0  0
  138.3680  137.4780  151.2680 Br  0  0  0  0  0  0  0  0  0  0  0  0
  138.3710  137.9730  154.1020 C   0  0  0  0  0  0  0  0  0  0  0  0
  138.9660  138.2930  155.3270 C   0  0  0  0  0  0  0  0  0  0  0  0
  140.3520  138.5400  155.3640 C   0  0  0  0  0  3  0  0  0  0  0  0
  137.0250  137.7280  154.0120 O   0  0  0  0  0  0  0  0  0  0  0  0
  136.7020  136.8520  154.0890 H   0  0  0  0  0  0  0  0  0  0  0  0
  138.3600  138.4090  156.5540 O   0  0  0  0  0  0  0  0  0  0  0  0
  138.1450  137.2180  157.3030 C   0  0  0  0  0  1  0  0  0  0  0  0
  1  2  2  0  0  0  0
  1  3  1  0  0  0  0
  3 13  1  0  0  0  0
  4  3  1  0  0  0  0
  5  6  1  0  0  0  0
  5  1  1  0  0  0  0
  7  6  1  0  0  0  0
  8  7  1  0  0  0  0
  8  9  1  0  0  0  0
  9 10  1  0  0  0  0
 10 12  1  0  0  0  0
 12 11  1  0  0  0  0
 14 13  1  0  0  0  0
 14 20  1  0  0  0  0
 15 14  2  0  0  0  0
 16 15  1  0  0  0  0
 16 18  2  0  0  0  0
 17 16  1  0  0  0  0
 18 19  1  0  0  0  0
 19 20  2  0  0  0  0
 19 23  1  0  0  0  0
 21 22  1  0  0  0  0
 21 18  1  0  0  0  0
 23 24  1  0  0  0  0
M  END
>  <MODEL>
1

>  <REMARK>
 VINA RESULT:    -6.293      0.000      0.000
 INTER + INTRA:         -11.307
 INTER:                 -10.498
 INTRA:                  -0.809
 UNBOUND:                -1.151
  Name = CHEMBL414663
  13 active torsions:
  status: ('A' for Active; 'I' for Inactive)
    1  A    between atoms: C_1  and  C_2
    2  A    between atoms: C_2  and  C_3
    3  A    between atoms: C_3  and  C_4
    4  A    between atoms: C_4  and  C_5
    5  A    between atoms: C_5  and  C_6
    6  A    between atoms: C_6  and  C_7
    7  A    between atoms: C_7  and  C_8
    8  A    between atoms: C_8  and  C_9
    9  A    between atoms: N_11  and  C_12
   10  A    between atoms: C_12  and  C_13
   11  A    between atoms: C_17  and  O_18
   12  A    between atoms: C_19  and  O_20
   13  A    between atoms: O_20  and  C_21
                            x       y       z     vdW  Elec       q    Type
                         _______ _______ _______ _____ _____    ______ ____

>  <TORSDO>
F 11

>  <SCORE>
-6.293

>  <RMSD_LB>
0.000

>  <RMSD_UB>
0.000

$$$$
CHEMBL414663
 OpenBabel10172500173D

 24 24  0  0  0  0  0  0  0  0999 V2000
  145.3120  138.3000  153.1200 C   0  0  0  0  0  0  0  0  0  0  0  0
  145.8200  137.9040  152.0680 O   0  0  0  0  0  0  0  0  0  0  0  0
  143.9500  138.3090  153.3240 N   0  0  0  0  0  0  0  0  0  0  0  0
  143.5880  138.6050  154.1890 H   0  0  0  0  0  0  0  0  0  0  0  0
  146.1430  138.7640  154.2990 C   0  0  0  0  0  2  0  0  0  0  0  0
  147.5530  138.1760  154.2270 C   0  0  0  0  0  2  0  0  0  0  0  0
  148.6150  139.2320  153.9320 C   0  0  0  0  0  2  0  0  0  0  0  0
  148.1760  140.6020  154.4540 C   0  0  0  0  0  2  0  0  0  0  0  0
  148.7390  141.7280  153.5900 C   0  0  0  0  0  2  0  0  0  0  0  0
  147.8920  141.9330  152.3360 C   0  0  0  0  0  2  0  0  0  0  0  0
  145.6150  142.5430  151.4750 C   0  0  0  0  0  1  0  0  0  0  0  0
  146.4200  142.1240  152.6930 C   0  0  0  0  0  2  0  0  0  0  0  0
  143.0480  137.8860  152.2750 C   0  0  0  0  0  2  0  0  0  0  0  0
  141.6020  137.9070  152.7100 C   0  0  0  0  0  0  0  0  0  0  0  0
  140.5820  137.7030  151.7730 C   0  0  0  0  0  3  0  0  0  0  0  0
  139.2450  137.7310  152.1710 C   0  0  0  0  0  0  0  0  0  0  0  0
  137.9010  137.4400  150.8600 Br  0  0  0  0  0  0  0  0  0  0  0  0
  138.8950  137.9730  153.5070 C   0  0  0  0  0  0  0  0  0  0  0  0
  139.8970  138.1870  154.4600 C   0  0  0  0  0  0  0  0  0  0  0  0
  141.2430  138.1520  154.0480 C   0  0  0  0  0  3  0  0  0  0  0  0
  137.5690  138.0020  153.8550 O   0  0  0  0  0  0  0  0  0  0  0  0
  137.2570  137.4610  154.5540 H   0  0  0  0  0  0  0  0  0  0  0  0
  139.7440  138.4440  155.8000 O   0  0  0  0  0  0  0  0  0  0  0  0
  140.1350  137.4290  156.7190 C   0  0  0  0  0  1  0  0  0  0  0  0
  1  3  1  0  0  0  0
  1  5  1  0  0  0  0
  2  1  2  0  0  0  0
  3  4  1  0  0  0  0
  6  5  1  0  0  0  0
  7  6  1  0  0  0  0
  7  8  1  0  0  0  0
  9  8  1  0  0  0  0
 10 12  1  0  0  0  0
 10  9  1  0  0  0  0
 11 12  1  0  0  0  0
 13 14  1  0  0  0  0
 13  3  1  0  0  0  0
 14 20  1  0  0  0  0
 15 16  1  0  0  0  0
 15 14  2  0  0  0  0
 16 18  2  0  0  0  0
 17 16  1  0  0  0  0
 18 21  1  0  0  0  0
 18 19  1  0  0  0  0
 19 23  1  0  0  0  0
 20 19  2  0  0  0  0
 21 22  1  0  0  0  0
 23 24  1  0  0  0  0
M  END
>  <MODEL>
2

>  <REMARK>
 VINA RESULT:    -6.119      1.634      2.557
 INTER + INTRA:         -11.026
 INTER:                 -10.074
 INTRA:                  -0.952
 UNBOUND:                -1.151
  Name = CHEMBL414663
  13 active torsions:
  status: ('A' for Active; 'I' for Inactive)
    1  A    between atoms: C_1  and  C_2
    2  A    between atoms: C_2  and  C_3
    3  A    between atoms: C_3  and  C_4
    4  A    between atoms: C_4  and  C_5
    5  A    between atoms: C_5  and  C_6
    6  A    between atoms: C_6  and  C_7
    7  A    between atoms: C_7  and  C_8
    8  A    between atoms: C_8  and  C_9
    9  A    between atoms: N_11  and  C_12
   10  A    between atoms: C_12  and  C_13
   11  A    between atoms: C_17  and  O_18
   12  A    between atoms: C_19  and  O_20
   13  A    between atoms: O_20  and  C_21
                            x       y       z     vdW  Elec       q    Type
                         _______ _______ _______ _____ _____    ______ ____

>  <TORSDO>
F 11

>  <SCORE>
-6.119

>  <RMSD_LB>
1.634

>  <RMSD_UB>
2.557

$$$$
CHEMBL414663
 OpenBabel10172500173D

 24 24  0  0  0  0  0  0  0  0999 V2000
  145.6770  137.4880  151.1280 C   0  0  0  0  0  0  0  0  0  0  0  0
  146.0250  136.3490  151.4450 O   0  0  0  0  0  0  0  0  0  0  0  0
  144.3650  137.8120  150.8630 N   0  0  0  0  0  0  0  0  0  0  0  0
  144.1260  138.7410  150.6420 H   0  0  0  0  0  0  0  0  0  0  0  0
  146.6530  138.6440  151.0520 C   0  0  0  0  0  2  0  0  0  0  0  0
  146.3890  139.4910  149.8070 C   0  0  0  0  0  2  0  0  0  0  0  0
  146.6480  140.9770  150.0420 C   0  0  0  0  0  2  0  0  0  0  0  0
  145.3790  141.6790  150.5280 C   0  0  0  0  0  2  0  0  0  0  0  0
  145.6160  142.3920  151.8570 C   0  0  0  0  0  2  0  0  0  0  0  0
  147.0710  142.2560  152.2990 C   0  0  0  0  0  2  0  0  0  0  0  0
  148.5690  141.8380  154.2690 C   0  0  0  0  0  1  0  0  0  0  0  0
  147.1640  141.6860  153.7120 C   0  0  0  0  0  2  0  0  0  0  0  0
  143.3350  136.7960  150.9060 C   0  0  0  0  0  2  0  0  0  0  0  0
  142.0780  137.2750  151.5920 C   0  0  0  0  0  0  0  0  0  0  0  0
  140.8680  137.3210  150.8900 C   0  0  0  0  0  3  0  0  0  0  0  0
  139.7060  137.7720  151.5190 C   0  0  0  0  0  0  0  0  0  0  0  0
  138.0900  137.8070  150.5210 Br  0  0  0  0  0  0  0  0  0  0  0  0
  139.7270  138.1930  152.8550 C   0  0  0  0  0  0  0  0  0  0  0  0
  140.9260  138.1620  153.5760 C   0  0  0  0  0  0  0  0  0  0  0  0
  142.0910  137.7010  152.9330 C   0  0  0  0  0  3  0  0  0  0  0  0
  138.5660  138.6370  153.4340 O   0  0  0  0  0  0  0  0  0  0  0  0
  137.7440  138.4920  153.0070 H   0  0  0  0  0  0  0  0  0  0  0  0
  141.1360  138.5390  154.8780 O   0  0  0  0  0  0  0  0  0  0  0  0
  142.1420  139.5130  155.1330 C   0  0  0  0  0  1  0  0  0  0  0  0
  1  2  2  0  0  0  0
  3 13  1  0  0  0  0
  3  1  1  0  0  0  0
  4  3  1  0  0  0  0
  5  1  1  0  0  0  0
  6  7  1  0  0  0  0
  6  5  1  0  0  0  0
  7  8  1  0  0  0  0
  8  9  1  0  0  0  0
  9 10  1  0  0  0  0
 10 12  1  0  0  0  0
 12 11  1  0  0  0  0
 13 14  1  0  0  0  0
 14 20  1  0  0  0  0
 15 16  1  0  0  0  0
 15 14  2  0  0  0  0
 16 18  2  0  0  0  0
 17 16  1  0  0  0  0
 18 21  1  0  0  0  0
 18 19  1  0  0  0  0
 19 23  1  0  0  0  0
 20 19  2  0  0  0  0
 22 21  1  0  0  0  0
 23 24  1  0  0  0  0
M  END
>  <MODEL>
3

>  <REMARK>
 VINA RESULT:    -5.959      2.047      2.645
 INTER + INTRA:         -10.768
 INTER:                  -9.720
 INTRA:                  -1.049
 UNBOUND:                -1.151
  Name = CHEMBL414663
  13 active torsions:
  status: ('A' for Active; 'I' for Inactive)
    1  A    between atoms: C_1  and  C_2
    2  A    between atoms: C_2  and  C_3
    3  A    between atoms: C_3  and  C_4
    4  A    between atoms: C_4  and  C_5
    5  A    between atoms: C_5  and  C_6
    6  A    between atoms: C_6  and  C_7
    7  A    between atoms: C_7  and  C_8
    8  A    between atoms: C_8  and  C_9
    9  A    between atoms: N_11  and  C_12
   10  A    between atoms: C_12  and  C_13
   11  A    between atoms: C_17  and  O_18
   12  A    between atoms: C_19  and  O_20
   13  A    between atoms: O_20  and  C_21
                            x       y       z     vdW  Elec       q    Type
                         _______ _______ _______ _____ _____    ______ ____

>  <TORSDO>
F 11

>  <SCORE>
-5.959

>  <RMSD_LB>
2.047

>  <RMSD_UB>
2.645

$$$$
CHEMBL414663
 OpenBabel10172500173D

 24 24  0  0  0  0  0  0  0  0999 V2000
  139.7480  138.2490  155.1400 C   0  0  0  0  0  0  0  0  0  0  0  0
  140.7870  138.0390  155.7720 O   0  0  0  0  0  0  0  0  0  0  0  0
  138.5210  137.7920  155.5640 N   0  0  0  0  0  0  0  0  0  0  0  0
  137.7130  138.0090  155.0450 H   0  0  0  0  0  0  0  0  0  0  0  0
  139.7250  139.0730  153.8690 C   0  0  0  0  0  2  0  0  0  0  0  0
  139.6120  138.1670  152.6420 C   0  0  0  0  0  2  0  0  0  0  0  0
  140.9540  137.5690  152.2290 C   0  0  0  0  0  2  0  0  0  0  0  0
  141.0900  137.5420  150.7050 C   0  0  0  0  0  2  0  0  0  0  0  0
  141.1350  138.9550  150.1290 C   0  0  0  0  0  2  0  0  0  0  0  0
  140.1380  139.1110  148.9830 C   0  0  0  0  0  2  0  0  0  0  0  0
  137.6990  138.8560  149.5160 C   0  0  0  0  0  1  0  0  0  0  0  0
  138.8710  139.8210  149.4490 C   0  0  0  0  0  2  0  0  0  0  0  0
  138.4090  136.9960  156.7670 C   0  0  0  0  0  2  0  0  0  0  0  0
  137.1260  136.2020  156.8200 C   0  0  0  0  0  0  0  0  0  0  0  0
  136.4710  135.8460  155.6360 C   0  0  0  0  0  3  0  0  0  0  0  0
  135.2790  135.1200  155.6810 C   0  0  0  0  0  0  0  0  0  0  0  0
  134.4360  134.6550  154.0440 Br  0  0  0  0  0  0  0  0  0  0  0  0
  134.7120  134.7420  156.9060 C   0  0  0  0  0  0  0  0  0  0  0  0
  135.3450  135.0930  158.1030 C   0  0  0  0  0  0  0  0  0  0  0  0
  136.5490  135.8220  158.0450 C   0  0  0  0  0  3  0  0  0  0  0  0
  133.5360  134.0370  156.9080 O   0  0  0  0  0  0  0  0  0  0  0  0
  133.1220  133.8140  156.0970 H   0  0  0  0  0  0  0  0  0  0  0  0
  134.9370  134.8190  159.3850 O   0  0  0  0  0  0  0  0  0  0  0  0
  134.2010  135.8220  160.0760 C   0  0  0  0  0  1  0  0  0  0  0  0
  1  3  1  0  0  0  0
  1  2  2  0  0  0  0
  3 13  1  0  0  0  0
  4  3  1  0  0  0  0
  5  1  1  0  0  0  0
  6  5  1  0  0  0  0
  7  6  1  0  0  0  0
  8  7  1  0  0  0  0
  9  8  1  0  0  0  0
 10 12  1  0  0  0  0
 10  9  1  0  0  0  0
 12 11  1  0  0  0  0
 13 14  1  0  0  0  0
 14 20  1  0  0  0  0
 15 16  1  0  0  0  0
 15 14  2  0  0  0  0
 16 18  2  0  0  0  0
 17 16  1  0  0  0  0
 18 21  1  0  0  0  0
 18 19  1  0  0  0  0
 19 23  1  0  0  0  0
 20 19  2  0  0  0  0
 22 21  1  0  0  0  0
 23 24  1  0  0  0  0
M  END
>  <MODEL>
4

>  <REMARK>
 VINA RESULT:    -5.695      4.934      6.738
 INTER + INTRA:         -10.343
 INTER:                  -9.342
 INTRA:                  -1.000
 UNBOUND:                -1.151
  Name = CHEMBL414663
  13 active torsions:
  status: ('A' for Active; 'I' for Inactive)
    1  A    between atoms: C_1  and  C_2
    2  A    between atoms: C_2  and  C_3
    3  A    between atoms: C_3  and  C_4
    4  A    between atoms: C_4  and  C_5
    5  A    between atoms: C_5  and  C_6
    6  A    between atoms: C_6  and  C_7
    7  A    between atoms: C_7  and  C_8
    8  A    between atoms: C_8  and  C_9
    9  A    between atoms: N_11  and  C_12
   10  A    between atoms: C_12  and  C_13
   11  A    between atoms: C_17  and  O_18
   12  A    between atoms: C_19  and  O_20
   13  A    between atoms: O_20  and  C_21
                            x       y       z     vdW  Elec       q    Type
                         _______ _______ _______ _____ _____    ______ ____

>  <TORSDO>
F 11

>  <SCORE>
-5.695

>  <RMSD_LB>
4.934

>  <RMSD_UB>
6.738

$$$$
CHEMBL414663
 OpenBabel10172500173D

 24 24  0  0  0  0  0  0  0  0999 V2000
  141.6990  138.7070  154.2670 C   0  0  0  0  0  0  0  0  0  0  0  0
  141.1340  139.1130  155.2860 O   0  0  0  0  0  0  0  0  0  0  0  0
  143.0230  138.9710  154.0020 N   0  0  0  0  0  0  0  0  0  0  0  0
  143.4420  138.6020  153.1910 H   0  0  0  0  0  0  0  0  0  0  0  0
  140.9980  137.8380  153.2430 C   0  0  0  0  0  2  0  0  0  0  0  0
  141.2800  138.3410  151.8260 C   0  0  0  0  0  2  0  0  0  0  0  0
  141.4580  137.2040  150.8240 C   0  0  0  0  0  2  0  0  0  0  0  0
  142.4120  137.6150  149.7000 C   0  0  0  0  0  2  0  0  0  0  0  0
  143.8020  137.9340  150.2440 C   0  0  0  0  0  2  0  0  0  0  0  0
  144.4850  136.6760  150.7730 C   0  0  0  0  0  2  0  0  0  0  0  0
  146.7280  136.8470  151.8870 C   0  0  0  0  0  1  0  0  0  0  0  0
  145.2250  136.9590  152.0780 C   0  0  0  0  0  2  0  0  0  0  0  0
  143.8050  139.7870  154.9060 C   0  0  0  0  0  2  0  0  0  0  0  0
  145.2830  139.7360  154.6020 C   0  0  0  0  0  0  0  0  0  0  0  0
  145.8390  140.6140  153.6640 C   0  0  0  0  0  3  0  0  0  0  0  0
  147.2030  140.5630  153.3740 C   0  0  0  0  0  0  0  0  0  0  0  0
  147.9060  141.7830  152.0990 Br  0  0  0  0  0  0  0  0  0  0  0  0
  148.0400  139.6320  154.0060 C   0  0  0  0  0  0  0  0  0  0  0  0
  147.5060  138.7400  154.9420 C   0  0  0  0  0  0  0  0  0  0  0  0
  146.1290  138.8030  155.2300 C   0  0  0  0  0  3  0  0  0  0  0  0
  149.3730  139.6090  153.6860 O   0  0  0  0  0  0  0  0  0  0  0  0
  150.0170  139.7570  154.3510 H   0  0  0  0  0  0  0  0  0  0  0  0
  148.1650  137.7650  155.6470 O   0  0  0  0  0  0  0  0  0  0  0  0
  148.3060  137.9420  157.0530 C   0  0  0  0  0  1  0  0  0  0  0  0
  1  2  2  0  0  0  0
  3  1  1  0  0  0  0
  3 13  1  0  0  0  0
  4  3  1  0  0  0  0
  5  1  1  0  0  0  0
  6  5  1  0  0  0  0
  7  6  1  0  0  0  0
  8  9  1  0  0  0  0
  8  7  1  0  0  0  0
  9 10  1  0  0  0  0
 10 12  1  0  0  0  0
 11 12  1  0  0  0  0
 14 13  1  0  0  0  0
 14 20  1  0  0  0  0
 15 14  2  0  0  0  0
 16 15  1  0  0  0  0
 16 18  2  0  0  0  0
 17 16  1  0  0  0  0
 18 19  1  0  0  0  0
 19 20  2  0  0  0  0
 19 23  1  0  0  0  0
 21 18  1  0  0  0  0
 21 22  1  0  0  0  0
 23 24  1  0  0  0  0
M  END
>  <MODEL>
5

>  <REMARK>
 VINA RESULT:    -5.692      3.697      7.128
 INTER + INTRA:         -10.337
 INTER:                  -8.797
 INTRA:                  -1.541
 UNBOUND:                -1.151
  Name = CHEMBL414663
  13 active torsions:
  status: ('A' for Active; 'I' for Inactive)
    1  A    between atoms: C_1  and  C_2
    2  A    between atoms: C_2  and  C_3
    3  A    between atoms: C_3  and  C_4
    4  A    between atoms: C_4  and  C_5
    5  A    between atoms: C_5  and  C_6
    6  A    between atoms: C_6  and  C_7
    7  A    between atoms: C_7  and  C_8
    8  A    between atoms: C_8  and  C_9
    9  A    between atoms: N_11  and  C_12
   10  A    between atoms: C_12  and  C_13
   11  A    between atoms: C_17  and  O_18
   12  A    between atoms: C_19  and  O_20
   13  A    between atoms: O_20  and  C_21
                            x       y       z     vdW  Elec       q    Type
                         _______ _______ _______ _____ _____    ______ ____

>  <TORSDO>
F 11

>  <SCORE>
-5.692

>  <RMSD_LB>
3.697

>  <RMSD_UB>
7.128

$$$$
CHEMBL414663
 OpenBabel10172500173D

 24 24  0  0  0  0  0  0  0  0999 V2000
  134.2560  134.6550  152.0940 C   0  0  0  0  0  0  0  0  0  0  0  0
  133.7860  135.7870  151.9560 O   0  0  0  0  0  0  0  0  0  0  0  0
  133.7980  133.5730  151.3770 N   0  0  0  0  0  0  0  0  0  0  0  0
  134.2210  132.6930  151.4960 H   0  0  0  0  0  0  0  0  0  0  0  0
  135.4130  134.3650  153.0280 C   0  0  0  0  0  2  0  0  0  0  0  0
  135.1150  134.8910  154.4330 C   0  0  0  0  0  2  0  0  0  0  0  0
  136.3280  135.5570  155.0790 C   0  0  0  0  0  2  0  0  0  0  0  0
  135.9030  136.7730  155.9050 C   0  0  0  0  0  2  0  0  0  0  0  0
  137.0400  137.2570  156.8010 C   0  0  0  0  0  2  0  0  0  0  0  0
  138.3080  136.4390  156.5670 C   0  0  0  0  0  2  0  0  0  0  0  0
  139.1940  138.2130  155.0290 C   0  0  0  0  0  1  0  0  0  0  0  0
  139.4920  137.3420  156.2370 C   0  0  0  0  0  2  0  0  0  0  0  0
  132.6980  133.7210  150.4480 C   0  0  0  0  0  2  0  0  0  0  0  0
  133.1600  134.0550  149.0500 C   0  0  0  0  0  0  0  0  0  0  0  0
  132.9250  135.3270  148.5170 C   0  0  0  0  0  3  0  0  0  0  0  0
  133.3430  135.6360  147.2210 C   0  0  0  0  0  0  0  0  0  0  0  0
  133.0050  137.3810  146.5500 Br  0  0  0  0  0  0  0  0  0  0  0  0
  133.9960  134.6820  146.4280 C   0  0  0  0  0  0  0  0  0  0  0  0
  134.2360  133.4020  146.9370 C   0  0  0  0  0  0  0  0  0  0  0  0
  133.8140  133.1020  148.2470 C   0  0  0  0  0  3  0  0  0  0  0  0
  134.3830  135.0230  145.1570 O   0  0  0  0  0  0  0  0  0  0  0  0
  135.0980  134.5750  144.7500 H   0  0  0  0  0  0  0  0  0  0  0  0
  134.8490  132.3460  146.3090 O   0  0  0  0  0  0  0  0  0  0  0  0
  136.1550  131.9830  146.7420 C   0  0  0  0  0  1  0  0  0  0  0  0
  1  5  1  0  0  0  0
  2  1  2  0  0  0  0
  3  4  1  0  0  0  0
  3  1  1  0  0  0  0
  5  6  1  0  0  0  0
  6  7  1  0  0  0  0
  7  8  1  0  0  0  0
  8  9  1  0  0  0  0
 10  9  1  0  0  0  0
 11 12  1  0  0  0  0
 12 10  1  0  0  0  0
 13  3  1  0  0  0  0
 14 13  1  0  0  0  0
 15 14  1  0  0  0  0
 16 15  2  0  0  0  0
 17 16  1  0  0  0  0
 18 19  2  0  0  0  0
 18 16  1  0  0  0  0
 19 20  1  0  0  0  0
 20 14  2  0  0  0  0
 21 18  1  0  0  0  0
 22 21  1  0  0  0  0
 23 24  1  0  0  0  0
 23 19  1  0  0  0  0
M  END
>  <MODEL>
6

>  <REMARK>
 VINA RESULT:    -5.679      7.140     11.014
 INTER + INTRA:         -10.316
 INTER:                  -9.563
 INTRA:                  -0.753
 UNBOUND:                -1.151
  Name = CHEMBL414663
  13 active torsions:
  status: ('A' for Active; 'I' for Inactive)
    1  A    between atoms: C_1  and  C_2
    2  A    between atoms: C_2  and  C_3
    3  A    between atoms: C_3  and  C_4
    4  A    between atoms: C_4  and  C_5
    5  A    between atoms: C_5  and  C_6
    6  A    between atoms: C_6  and  C_7
    7  A    between atoms: C_7  and  C_8
    8  A    between atoms: C_8  and  C_9
    9  A    between atoms: N_11  and  C_12
   10  A    between atoms: C_12  and  C_13
   11  A    between atoms: C_17  and  O_18
   12  A    between atoms: C_19  and  O_20
   13  A    between atoms: O_20  and  C_21
                            x       y       z     vdW  Elec       q    Type
                         _______ _______ _______ _____ _____    ______ ____

>  <TORSDO>
F 11

>  <SCORE>
-5.679

>  <RMSD_LB>
7.140

>  <RMSD_UB>
11.014

$$$$
CHEMBL414663
 OpenBabel10172500173D

 24 24  0  0  0  0  0  0  0  0999 V2000
  141.5580  139.7850  149.9380 C   0  0  0  0  0  0  0  0  0  0  0  0
  140.6570  140.5830  149.6690 O   0  0  0  0  0  0  0  0  0  0  0  0
  141.3180  138.5890  150.5760 N   0  0  0  0  0  0  0  0  0  0  0  0
  142.0620  137.9670  150.7440 H   0  0  0  0  0  0  0  0  0  0  0  0
  143.0000  140.0260  149.5430 C   0  0  0  0  0  2  0  0  0  0  0  0
  143.8400  140.3890  150.7680 C   0  0  0  0  0  2  0  0  0  0  0  0
  145.0650  141.2270  150.4130 C   0  0  0  0  0  2  0  0  0  0  0  0
  145.4670  142.1260  151.5840 C   0  0  0  0  0  2  0  0  0  0  0  0
  146.9840  142.2630  151.6810 C   0  0  0  0  0  2  0  0  0  0  0  0
  147.6170  140.9740  152.2000 C   0  0  0  0  0  2  0  0  0  0  0  0
  148.5790  141.8640  154.3400 C   0  0  0  0  0  1  0  0  0  0  0  0
  147.5690  140.9120  153.7240 C   0  0  0  0  0  2  0  0  0  0  0  0
  139.9800  138.2390  151.0020 C   0  0  0  0  0  2  0  0  0  0  0  0
  139.8420  138.1980  152.5050 C   0  0  0  0  0  0  0  0  0  0  0  0
  138.6370  137.7890  153.0890 C   0  0  0  0  0  3  0  0  0  0  0  0
  138.5040  137.7590  154.4790 C   0  0  0  0  0  0  0  0  0  0  0  0
  136.8500  137.1890  155.2190 Br  0  0  0  0  0  0  0  0  0  0  0  0
  139.5620  138.1440  155.3130 C   0  0  0  0  0  0  0  0  0  0  0  0
  140.7730  138.5630  154.7510 C   0  0  0  0  0  0  0  0  0  0  0  0
  140.8990  138.5850  153.3480 C   0  0  0  0  0  3  0  0  0  0  0  0
  139.3880  138.1090  156.6730 O   0  0  0  0  0  0  0  0  0  0  0  0
  138.8080  138.7190  157.0860 H   0  0  0  0  0  0  0  0  0  0  0  0
  141.9060  138.9800  155.4050 O   0  0  0  0  0  0  0  0  0  0  0  0
  143.0580  139.2690  154.6200 C   0  0  0  0  0  1  0  0  0  0  0  0
  1  3  1  0  0  0  0
  2  1  2  0  0  0  0
  3  4  1  0  0  0  0
  3 13  1  0  0  0  0
  5  1  1  0  0  0  0
  5  6  1  0  0  0  0
  7  6  1  0  0  0  0
  7  8  1  0  0  0  0
  8  9  1  0  0  0  0
  9 10  1  0  0  0  0
 10 12  1  0  0  0  0
 12 11  1  0  0  0  0
 13 14  1  0  0  0  0
 14 15  2  0  0  0  0
 14 20  1  0  0  0  0
 15 16  1  0  0  0  0
 16 17  1  0  0  0  0
 16 18  2  0  0  0  0
 18 21  1  0  0  0  0
 19 18  1  0  0  0  0
 19 23  1  0  0  0  0
 20 19  2  0  0  0  0
 21 22  1  0  0  0  0
 24 23  1  0  0  0  0
M  END
>  <MODEL>
7

>  <REMARK>
 VINA RESULT:    -5.666      2.106      2.940
 INTER + INTRA:         -10.296
 INTER:                  -9.475
 INTRA:                  -0.821
 UNBOUND:                -1.151
  Name = CHEMBL414663
  13 active torsions:
  status: ('A' for Active; 'I' for Inactive)
    1  A    between atoms: C_1  and  C_2
    2  A    between atoms: C_2  and  C_3
    3  A    between atoms: C_3  and  C_4
    4  A    between atoms: C_4  and  C_5
    5  A    between atoms: C_5  and  C_6
    6  A    between atoms: C_6  and  C_7
    7  A    between atoms: C_7  and  C_8
    8  A    between atoms: C_8  and  C_9
    9  A    between atoms: N_11  and  C_12
   10  A    between atoms: C_12  and  C_13
   11  A    between atoms: C_17  and  O_18
   12  A    between atoms: C_19  and  O_20
   13  A    between atoms: O_20  and  C_21
                            x       y       z     vdW  Elec       q    Type
                         _______ _______ _______ _____ _____    ______ ____

>  <TORSDO>
F 11

>  <SCORE>
-5.666

>  <RMSD_LB>
2.106

>  <RMSD_UB>
2.940

$$$$
CHEMBL414663
 OpenBabel10172500173D

 24 24  0  0  0  0  0  0  0  0999 V2000
  139.4490  137.9850  152.3070 C   0  0  0  0  0  0  0  0  0  0  0  0
  140.3030  137.3100  151.7260 O   0  0  0  0  0  0  0  0  0  0  0  0
  138.1120  137.9170  151.9870 N   0  0  0  0  0  0  0  0  0  0  0  0
  137.4610  138.4510  152.4960 H   0  0  0  0  0  0  0  0  0  0  0  0
  139.7910  138.9090  153.4570 C   0  0  0  0  0  2  0  0  0  0  0  0
  138.7520  138.7860  154.5730 C   0  0  0  0  0  2  0  0  0  0  0  0
  138.9840  137.5640  155.4580 C   0  0  0  0  0  2  0  0  0  0  0  0
  137.7590  137.2860  156.3310 C   0  0  0  0  0  2  0  0  0  0  0  0
  137.6380  135.7990  156.6560 C   0  0  0  0  0  2  0  0  0  0  0  0
  136.9020  135.5860  157.9770 C   0  0  0  0  0  2  0  0  0  0  0  0
  136.8000  137.0500  160.0130 C   0  0  0  0  0  1  0  0  0  0  0  0
  136.4090  136.9100  158.5520 C   0  0  0  0  0  2  0  0  0  0  0  0
  137.6570  137.0670  150.9090 C   0  0  0  0  0  2  0  0  0  0  0  0
  136.3500  136.3790  151.2250 C   0  0  0  0  0  0  0  0  0  0  0  0
  136.0880  135.9330  152.5260 C   0  0  0  0  0  3  0  0  0  0  0  0
  134.8850  135.2880  152.8200 C   0  0  0  0  0  0  0  0  0  0  0  0
  134.5770  134.7100  154.6020 Br  0  0  0  0  0  0  0  0  0  0  0  0
  133.9240  135.0660  151.8230 C   0  0  0  0  0  0  0  0  0  0  0  0
  134.1670  135.4970  150.5150 C   0  0  0  0  0  0  0  0  0  0  0  0
  135.3820  136.1510  150.2300 C   0  0  0  0  0  3  0  0  0  0  0  0
  132.7600  134.4210  152.1510 O   0  0  0  0  0  0  0  0  0  0  0  0
  132.4520  133.7120  151.6200 H   0  0  0  0  0  0  0  0  0  0  0  0
  133.3530  135.3620  149.4180 O   0  0  0  0  0  0  0  0  0  0  0  0
  133.4470  134.1570  148.6660 C   0  0  0  0  0  1  0  0  0  0  0  0
  1  5  1  0  0  0  0
  2  1  2  0  0  0  0
  3  1  1  0  0  0  0
  3  4  1  0  0  0  0
  5  6  1  0  0  0  0
  6  7  1  0  0  0  0
  7  8  1  0  0  0  0
  8  9  1  0  0  0  0
  9 10  1  0  0  0  0
 10 12  1  0  0  0  0
 12 11  1  0  0  0  0
 13 14  1  0  0  0  0
 13  3  1  0  0  0  0
 14 15  1  0  0  0  0
 15 16  2  0  0  0  0
 16 17  1  0  0  0  0
 18 21  1  0  0  0  0
 18 16  1  0  0  0  0
 19 18  2  0  0  0  0
 20 19  1  0  0  0  0
 20 14  2  0  0  0  0
 22 21  1  0  0  0  0
 23 19  1  0  0  0  0
 24 23  1  0  0  0  0
M  END
>  <MODEL>
8

>  <REMARK>
 VINA RESULT:    -5.623      5.617      8.759
 INTER + INTRA:         -10.225
 INTER:                  -9.055
 INTRA:                  -1.170
 UNBOUND:                -1.151
  Name = CHEMBL414663
  13 active torsions:
  status: ('A' for Active; 'I' for Inactive)
    1  A    between atoms: C_1  and  C_2
    2  A    between atoms: C_2  and  C_3
    3  A    between atoms: C_3  and  C_4
    4  A    between atoms: C_4  and  C_5
    5  A    between atoms: C_5  and  C_6
    6  A    between atoms: C_6  and  C_7
    7  A    between atoms: C_7  and  C_8
    8  A    between atoms: C_8  and  C_9
    9  A    between atoms: N_11  and  C_12
   10  A    between atoms: C_12  and  C_13
   11  A    between atoms: C_17  and  O_18
   12  A    between atoms: C_19  and  O_20
   13  A    between atoms: O_20  and  C_21
                            x       y       z     vdW  Elec       q    Type
                         _______ _______ _______ _____ _____    ______ ____

>  <TORSDO>
F 11

>  <SCORE>
-5.623

>  <RMSD_LB>
5.617

>  <RMSD_UB>
8.759

$$$$
CHEMBL414663
 OpenBabel10172500173D

 24 24  0  0  0  0  0  0  0  0999 V2000
  144.5030  136.8170  148.8790 C   0  0  0  0  0  0  0  0  0  0  0  0
  144.9160  135.7230  149.2730 O   0  0  0  0  0  0  0  0  0  0  0  0
  143.3190  137.3620  149.3240 N   0  0  0  0  0  0  0  0  0  0  0  0
  143.0410  138.2500  149.0060 H   0  0  0  0  0  0  0  0  0  0  0  0
  145.2860  137.6800  147.9110 C   0  0  0  0  0  2  0  0  0  0  0  0
  145.4060  139.1090  148.4410 C   0  0  0  0  0  2  0  0  0  0  0  0
  146.6490  139.3120  149.3050 C   0  0  0  0  0  2  0  0  0  0  0  0
  146.3060  140.0990  150.5720 C   0  0  0  0  0  2  0  0  0  0  0  0
  147.5440  140.7770  151.1530 C   0  0  0  0  0  2  0  0  0  0  0  0
  147.2470  142.2250  151.5360 C   0  0  0  0  0  2  0  0  0  0  0  0
  146.9900  141.9620  154.0180 C   0  0  0  0  0  1  0  0  0  0  0  0
  146.2820  142.2940  152.7160 C   0  0  0  0  0  2  0  0  0  0  0  0
  142.4810  136.6370  150.2540 C   0  0  0  0  0  2  0  0  0  0  0  0
  142.1270  137.4540  151.4740 C   0  0  0  0  0  0  0  0  0  0  0  0
  143.1380  137.9390  152.3120 C   0  0  0  0  0  3  0  0  0  0  0  0
  142.8140  138.6870  153.4450 C   0  0  0  0  0  0  0  0  0  0  0  0
  144.2250  139.3270  154.5440 Br  0  0  0  0  0  0  0  0  0  0  0  0
  141.4780  138.9600  153.7710 C   0  0  0  0  0  0  0  0  0  0  0  0
  140.4510  138.4800  152.9510 C   0  0  0  0  0  0  0  0  0  0  0  0
  140.7890  137.7300  151.8080 C   0  0  0  0  0  3  0  0  0  0  0  0
  141.2020  139.6910  154.8980 O   0  0  0  0  0  0  0  0  0  0  0  0
  141.5350  140.5630  154.9840 H   0  0  0  0  0  0  0  0  0  0  0  0
  139.0970  138.6410  153.1150 O   0  0  0  0  0  0  0  0  0  0  0  0
  138.4310  137.7720  154.0250 C   0  0  0  0  0  1  0  0  0  0  0  0
  1  2  2  0  0  0  0
  1  3  1  0  0  0  0
  3 13  1  0  0  0  0
  4  3  1  0  0  0  0
  5  6  1  0  0  0  0
  5  1  1  0  0  0  0
  6  7  1  0  0  0  0
  7  8  1  0  0  0  0
  8  9  1  0  0  0  0
  9 10  1  0  0  0  0
 10 12  1  0  0  0  0
 12 11  1  0  0  0  0
 13 14  1  0  0  0  0
 14 20  2  0  0  0  0
 14 15  1  0  0  0  0
 15 16  2  0  0  0  0
 16 18  1  0  0  0  0
 16 17  1  0  0  0  0
 18 21  1  0  0  0  0
 19 23  1  0  0  0  0
 19 18  2  0  0  0  0
 20 19  1  0  0  0  0
 21 22  1  0  0  0  0
 23 24  1  0  0  0  0
M  END
>  <MODEL>
9

>  <REMARK>
 VINA RESULT:    -5.447      2.899      3.651
 INTER + INTRA:          -9.941
 INTER:                  -8.790
 INTRA:                  -1.151
 UNBOUND:                -1.151
  Name = CHEMBL414663
  13 active torsions:
  status: ('A' for Active; 'I' for Inactive)
    1  A    between atoms: C_1  and  C_2
    2  A    between atoms: C_2  and  C_3
    3  A    between atoms: C_3  and  C_4
    4  A    between atoms: C_4  and  C_5
    5  A    between atoms: C_5  and  C_6
    6  A    between atoms: C_6  and  C_7
    7  A    between atoms: C_7  and  C_8
    8  A    between atoms: C_8  and  C_9
    9  A    between atoms: N_11  and  C_12
   10  A    between atoms: C_12  and  C_13
   11  A    between atoms: C_17  and  O_18
   12  A    between atoms: C_19  and  O_20
   13  A    between atoms: O_20  and  C_21
                            x       y       z     vdW  Elec       q    Type
                         _______ _______ _______ _____ _____    ______ ____

>  <TORSDO>
F 11

>  <SCORE>
-5.447

>  <RMSD_LB>
2.899

>  <RMSD_UB>
3.651

$$$$
