CHEMBL173757
 OpenBabel10172500373D

 34 35  0  0  1  0  0  0  0  0999 V2000
  136.6670  135.9890  155.2100 C   0  0  0  0  0  0  0  0  0  0  0  0
  137.3930  136.0280  156.4140 C   0  0  0  0  0  3  0  0  0  0  0  0
  138.4850  136.8640  156.5770 C   0  0  0  0  0  3  0  0  0  0  0  0
  138.9040  137.7130  155.5480 C   0  0  0  0  0  0  0  0  0  0  0  0
  138.2170  137.6730  154.3170 C   0  0  0  0  0  0  0  0  0  0  0  0
  137.0790  136.8640  154.1850 C   0  0  0  0  0  3  0  0  0  0  0  0
  138.5670  138.3830  153.1880 O   0  0  0  0  0  0  0  0  0  0  0  0
  138.4480  137.6970  151.9410 C   0  0  0  0  0  1  0  0  0  0  0  0
  135.5400  134.9980  155.0270 C   0  0  0  0  0  2  0  0  0  0  0  0
  134.1410  135.7260  153.1270 C   0  0  0  0  0  0  0  0  0  0  0  0
  133.6300  136.6430  153.7400 O   0  0  0  0  0  0  0  0  0  0  0  0
  135.0890  134.8720  153.6600 N   0  0  0  0  0  0  0  0  0  0  0  0
  135.4670  134.1600  153.0940 H   0  0  0  0  0  0  0  0  0  0  0  0
  133.7950  135.4060  151.6730 C   0  0  0  0  0  2  0  0  0  0  0  0
  134.5670  134.1750  151.2110 C   0  0  0  0  0  2  0  0  0  0  0  0
  133.6650  133.1000  150.6240 C   0  0  0  0  0  2  0  0  0  0  0  0
  133.9610  132.9310  149.1370 C   0  0  0  0  0  2  0  0  0  0  0  0
  132.8500  133.5370  148.2920 C   0  0  0  0  0  2  0  0  0  0  0  0
  133.3750  134.7100  147.4750 C   0  0  0  0  0  2  0  0  0  0  0  0
  134.1570  136.9280  148.3250 C   0  0  0  0  0  1  0  0  0  0  0  0
  132.9520  136.0340  148.0980 C   0  0  0  0  0  2  0  0  0  0  0  0
  139.9240  138.5900  155.6970 O   0  0  0  0  0  0  0  0  0  0  0  0
  141.2540  138.1450  155.4300 C   0  0  0  0  0  2  0  0  0  0  0  0
  141.9690  139.2590  154.6600 C   0  0  1  0  0  3  0  0  0  0  0  0
  142.2830  140.3480  155.5340 O   0  0  0  0  0  0  0  0  0  0  0  0
  142.4080  141.1560  155.0110 H   0  0  0  0  0  0  0  0  0  0  0  0
  143.2560  138.7330  154.0300 C   0  0  0  0  0  2  0  0  0  0  0  0
  144.4850  139.4600  154.5590 C   0  0  0  0  0  2  0  0  0  0  0  0
  145.0860  140.2850  153.5130 N   0  0  0  0  0  0  0  0  0  0  0  0
  146.1230  141.1590  153.8110 C   0  0  0  0  0  2  0  0  0  0  0  0
  146.4940  142.1510  152.9870 C   0  0  0  0  0  3  0  0  0  0  0  0
  145.7390  142.3850  151.7040 C   0  0  0  0  0  3  0  0  0  0  0  0
  144.9020  141.1970  151.3040 C   0  0  0  0  0  3  0  0  0  0  0  0
  144.6050  140.2510  152.2070 C   0  0  0  0  0  3  0  0  0  0  0  0
  1  2  1  0  0  0  0
  2  3  2  0  0  0  0
  4 22  1  0  0  0  0
  4  3  1  0  0  0  0
  5  4  2  0  0  0  0
  6  5  1  0  0  0  0
  6  1  2  0  0  0  0
  7  5  1  0  0  0  0
  8  7  1  0  0  0  0
  9  1  1  0  0  0  0
 10 12  1  0  0  0  0
 10 11  2  0  0  0  0
 12  9  1  0  0  0  0
 13 12  1  0  0  0  0
 14 10  1  0  0  0  0
 15 14  1  0  0  0  0
 16 15  1  0  0  0  0
 17 16  1  0  0  0  0
 18 17  1  0  0  0  0
 19 21  1  0  0  0  0
 19 18  1  0  0  0  0
 21 20  1  0  0  0  0
 23 22  1  0  0  0  0
 24 27  1  1  0  0  0
 24 23  1  0  0  0  0
 24 25  1  0  0  0  0
 26 25  1  0  0  0  0
 27 28  1  0  0  0  0
 29 30  1  0  0  0  0
 29 28  1  0  0  0  0
 31 30  1  0  0  0  0
 32 31  2  0  0  0  0
 33 32  1  0  0  0  0
 33 34  2  0  0  0  0
 34 29  1  0  0  0  0
M  END
>  <MODEL>
1

>  <REMARK>
 VINA RESULT:    -7.576      0.000      0.000
 INTER + INTRA:         -16.450
 INTER:                 -14.898
 INTRA:                  -1.552
 UNBOUND:                -1.567
  Name = CHEMBL173757
  19 active torsions:
  status: ('A' for Active; 'I' for Inactive)
    1  A    between atoms: C_1  and  C_2
    2  A    between atoms: C_2  and  C_3
    3  A    between atoms: C_3  and  C_4
    4  A    between atoms: C_4  and  C_5
    5  A    between atoms: C_5  and  C_6
    6  A    between atoms: C_6  and  C_7
    7  A    between atoms: C_7  and  C_8
    8  A    between atoms: C_8  and  C_9
    9  A    between atoms: N_11  and  C_12
   10  A    between atoms: C_12  and  C_13
   11  A    between atoms: C_16  and  O_17
   12  A    between atoms: O_17  and  C_18
   13  A    between atoms: C_18  and  C_19
   14  A    between atoms: C_19  and  O_20
   15  A    between atoms: C_19  and  C_21
   16  A    between atoms: C_21  and  C_22
   17  A    between atoms: C_22  and  N_23
   18  A    between atoms: C_29  and  O_30
   19  A    between atoms: O_30  and  C_31
                            x       y       z     vdW  Elec       q    Type
                         _______ _______ _______ _____ _____    ______ ____

>  <TORSDO>
F 17

>  <SCORE>
-7.576

>  <RMSD_LB>
0.000

>  <RMSD_UB>
0.000

$$$$
CHEMBL173757
 OpenBabel10172500373D

 34 35  0  0  1  0  0  0  0  0999 V2000
  141.1360  138.7740  152.6610 C   0  0  0  0  0  0  0  0  0  0  0  0
  140.2740  138.2020  151.7070 C   0  0  0  0  0  3  0  0  0  0  0  0
  139.0220  137.7230  152.0550 C   0  0  0  0  0  3  0  0  0  0  0  0
  138.5600  137.8020  153.3720 C   0  0  0  0  0  0  0  0  0  0  0  0
  139.4130  138.3400  154.3570 C   0  0  0  0  0  0  0  0  0  0  0  0
  140.6550  138.8710  153.9820 C   0  0  0  0  0  3  0  0  0  0  0  0
  139.1320  138.4010  155.7050 O   0  0  0  0  0  0  0  0  0  0  0  0
  139.7860  137.4410  156.5370 C   0  0  0  0  0  1  0  0  0  0  0  0
  142.5340  139.1980  152.2720 C   0  0  0  0  0  2  0  0  0  0  0  0
  144.7100  139.2270  153.4390 C   0  0  0  0  0  0  0  0  0  0  0  0
  145.2920  138.6300  152.5540 O   0  0  0  0  0  0  0  0  0  0  0  0
  143.3680  139.5600  153.3950 N   0  0  0  0  0  0  0  0  0  0  0  0
  142.9720  140.0580  154.1470 H   0  0  0  0  0  0  0  0  0  0  0  0
  145.4010  139.6890  154.7210 C   0  0  0  0  0  2  0  0  0  0  0  0
  146.9140  139.6940  154.5270 C   0  0  0  0  0  2  0  0  0  0  0  0
  147.4660  141.0800  154.2310 C   0  0  0  0  0  2  0  0  0  0  0  0
  148.3680  141.0270  153.0010 C   0  0  0  0  0  2  0  0  0  0  0  0
  147.8510  141.9550  151.9110 C   0  0  0  0  0  2  0  0  0  0  0  0
  146.3950  142.3230  152.1650 C   0  0  0  0  0  2  0  0  0  0  0  0
  146.6010  142.4270  149.6740 C   0  0  0  0  0  1  0  0  0  0  0  0
  145.7000  142.7000  150.8630 C   0  0  0  0  0  2  0  0  0  0  0  0
  137.3160  137.4060  153.7320 O   0  0  0  0  0  0  0  0  0  0  0  0
  136.6210  136.4850  152.8940 C   0  0  0  0  0  2  0  0  0  0  0  0
  135.6900  135.6590  153.7850 C   0  0  1  0  0  3  0  0  0  0  0  0
  134.5410  136.4270  154.1560 O   0  0  0  0  0  0  0  0  0  0  0  0
  134.5870  137.3000  153.7360 H   0  0  0  0  0  0  0  0  0  0  0  0
  135.2350  134.3950  153.0590 C   0  0  0  0  0  2  0  0  0  0  0  0
  135.7330  134.3560  151.6210 C   0  0  0  0  0  2  0  0  0  0  0  0
  134.6100  134.2950  150.6880 N   0  0  0  0  0  0  0  0  0  0  0  0
  134.3260  133.1220  150.0000 C   0  0  0  0  0  2  0  0  0  0  0  0
  133.5320  133.0920  148.9200 C   0  0  0  0  0  3  0  0  0  0  0  0
  132.9530  134.3710  148.3740 C   0  0  0  0  0  3  0  0  0  0  0  0
  133.0110  135.5010  149.3710 C   0  0  0  0  0  3  0  0  0  0  0  0
  133.8310  135.4190  150.4290 C   0  0  0  0  0  3  0  0  0  0  0  0
  1  6  1  0  0  0  0
  2  3  1  0  0  0  0
  2  1  2  0  0  0  0
  3  4  2  0  0  0  0
  4 22  1  0  0  0  0
  4  5  1  0  0  0  0
  5  7  1  0  0  0  0
  6  5  2  0  0  0  0
  7  8  1  0  0  0  0
  9  1  1  0  0  0  0
  9 12  1  0  0  0  0
 10 14  1  0  0  0  0
 11 10  2  0  0  0  0
 12 10  1  0  0  0  0
 12 13  1  0  0  0  0
 15 14  1  0  0  0  0
 16 15  1  0  0  0  0
 17 16  1  0  0  0  0
 18 19  1  0  0  0  0
 18 17  1  0  0  0  0
 20 21  1  0  0  0  0
 21 19  1  0  0  0  0
 23 22  1  0  0  0  0
 24 23  1  6  0  0  0
 24 25  1  0  0  0  0
 26 25  1  0  0  0  0
 27 24  1  0  0  0  0
 28 27  1  0  0  0  0
 29 28  1  0  0  0  0
 30 29  1  0  0  0  0
 31 30  1  0  0  0  0
 32 31  2  0  0  0  0
 32 33  1  0  0  0  0
 33 34  2  0  0  0  0
 34 29  1  0  0  0  0
M  END
>  <MODEL>
2

>  <REMARK>
 VINA RESULT:    -7.257      1.710     11.197
 INTER + INTRA:         -15.823
 INTER:                 -14.378
 INTRA:                  -1.445
 UNBOUND:                -1.567
  Name = CHEMBL173757
  19 active torsions:
  status: ('A' for Active; 'I' for Inactive)
    1  A    between atoms: C_1  and  C_2
    2  A    between atoms: C_2  and  C_3
    3  A    between atoms: C_3  and  C_4
    4  A    between atoms: C_4  and  C_5
    5  A    between atoms: C_5  and  C_6
    6  A    between atoms: C_6  and  C_7
    7  A    between atoms: C_7  and  C_8
    8  A    between atoms: C_8  and  C_9
    9  A    between atoms: N_11  and  C_12
   10  A    between atoms: C_12  and  C_13
   11  A    between atoms: C_16  and  O_17
   12  A    between atoms: O_17  and  C_18
   13  A    between atoms: C_18  and  C_19
   14  A    between atoms: C_19  and  O_20
   15  A    between atoms: C_19  and  C_21
   16  A    between atoms: C_21  and  C_22
   17  A    between atoms: C_22  and  N_23
   18  A    between atoms: C_29  and  O_30
   19  A    between atoms: O_30  and  C_31
                            x       y       z     vdW  Elec       q    Type
                         _______ _______ _______ _____ _____    ______ ____

>  <TORSDO>
F 17

>  <SCORE>
-7.257

>  <RMSD_LB>
1.710

>  <RMSD_UB>
11.197

$$$$
CHEMBL173757
 OpenBabel10172500373D

 34 35  0  0  1  0  0  0  0  0999 V2000
  144.8020  137.3160  152.3760 C   0  0  0  0  0  0  0  0  0  0  0  0
  144.3710  137.7480  153.6440 C   0  0  0  0  0  3  0  0  0  0  0  0
  143.0330  137.9800  153.9160 C   0  0  0  0  0  3  0  0  0  0  0  0
  142.0530  137.7800  152.9400 C   0  0  0  0  0  0  0  0  0  0  0  0
  142.4560  137.3780  151.6500 C   0  0  0  0  0  0  0  0  0  0  0  0
  143.8070  137.0940  151.4030 C   0  0  0  0  0  3  0  0  0  0  0  0
  141.6180  137.2280  150.5650 O   0  0  0  0  0  0  0  0  0  0  0  0
  141.9080  138.0290  149.4190 C   0  0  0  0  0  1  0  0  0  0  0  0
  146.2770  137.1660  152.0790 C   0  0  0  0  0  2  0  0  0  0  0  0
  148.0250  138.3810  153.3290 C   0  0  0  0  0  0  0  0  0  0  0  0
  148.3160  137.4270  154.0230 O   0  0  0  0  0  0  0  0  0  0  0  0
  147.0510  138.3550  152.3470 N   0  0  0  0  0  0  0  0  0  0  0  0
  146.8830  139.1680  151.8170 H   0  0  0  0  0  0  0  0  0  0  0  0
  148.7100  139.7410  153.4590 C   0  0  0  0  0  2  0  0  0  0  0  0
  147.7970  140.7190  154.1900 C   0  0  0  0  0  2  0  0  0  0  0  0
  147.4890  141.9630  153.3710 C   0  0  0  0  0  2  0  0  0  0  0  0
  147.9370  141.7570  151.9270 C   0  0  0  0  0  2  0  0  0  0  0  0
  146.8870  142.2740  150.9560 C   0  0  0  0  0  2  0  0  0  0  0  0
  145.5180  142.3230  151.6210 C   0  0  0  0  0  2  0  0  0  0  0  0
  144.9390  140.5100  149.9980 C   0  0  0  0  0  1  0  0  0  0  0  0
  144.7730  141.0090  151.4210 C   0  0  0  0  0  2  0  0  0  0  0  0
  140.7310  137.9310  153.1920 O   0  0  0  0  0  0  0  0  0  0  0  0
  140.3130  138.1610  154.5370 C   0  0  0  0  0  2  0  0  0  0  0  0
  138.9300  138.8140  154.4870 C   0  0  1  0  0  3  0  0  0  0  0  0
  138.9540  139.9720  153.6450 O   0  0  0  0  0  0  0  0  0  0  0  0
  139.8250  140.0470  153.2240 H   0  0  0  0  0  0  0  0  0  0  0  0
  137.8900  137.8300  153.9580 C   0  0  0  0  0  2  0  0  0  0  0  0
  137.3130  136.9640  155.0690 C   0  0  0  0  0  2  0  0  0  0  0  0
  136.2330  136.1220  154.5580 N   0  0  0  0  0  0  0  0  0  0  0  0
  135.3550  135.4920  155.4300 C   0  0  0  0  0  2  0  0  0  0  0  0
  134.5630  134.4770  155.0530 C   0  0  0  0  0  3  0  0  0  0  0  0
  134.6450  133.9410  153.6470 C   0  0  0  0  0  3  0  0  0  0  0  0
  135.3300  134.8980  152.7050 C   0  0  0  0  0  3  0  0  0  0  0  0
  136.0870  135.8920  153.1920 C   0  0  0  0  0  3  0  0  0  0  0  0
  1  2  1  0  0  0  0
  2  3  2  0  0  0  0
  4 22  1  0  0  0  0
  4  3  1  0  0  0  0
  5  4  2  0  0  0  0
  6  5  1  0  0  0  0
  6  1  2  0  0  0  0
  7  5  1  0  0  0  0
  8  7  1  0  0  0  0
  9 12  1  0  0  0  0
  9  1  1  0  0  0  0
 10 14  1  0  0  0  0
 10 11  2  0  0  0  0
 12 10  1  0  0  0  0
 13 12  1  0  0  0  0
 14 15  1  0  0  0  0
 16 15  1  0  0  0  0
 17 16  1  0  0  0  0
 18 19  1  0  0  0  0
 18 17  1  0  0  0  0
 20 21  1  0  0  0  0
 21 19  1  0  0  0  0
 22 23  1  0  0  0  0
 24 27  1  6  0  0  0
 24 23  1  0  0  0  0
 25 24  1  0  0  0  0
 26 25  1  0  0  0  0
 27 28  1  0  0  0  0
 29 28  1  0  0  0  0
 29 30  1  0  0  0  0
 31 30  1  0  0  0  0
 32 31  2  0  0  0  0
 33 34  2  0  0  0  0
 33 32  1  0  0  0  0
 34 29  1  0  0  0  0
M  END
>  <MODEL>
3

>  <REMARK>
 VINA RESULT:    -7.226      2.829     10.947
 INTER + INTRA:         -15.762
 INTER:                 -13.567
 INTRA:                  -2.195
 UNBOUND:                -1.567
  Name = CHEMBL173757
  19 active torsions:
  status: ('A' for Active; 'I' for Inactive)
    1  A    between atoms: C_1  and  C_2
    2  A    between atoms: C_2  and  C_3
    3  A    between atoms: C_3  and  C_4
    4  A    between atoms: C_4  and  C_5
    5  A    between atoms: C_5  and  C_6
    6  A    between atoms: C_6  and  C_7
    7  A    between atoms: C_7  and  C_8
    8  A    between atoms: C_8  and  C_9
    9  A    between atoms: N_11  and  C_12
   10  A    between atoms: C_12  and  C_13
   11  A    between atoms: C_16  and  O_17
   12  A    between atoms: O_17  and  C_18
   13  A    between atoms: C_18  and  C_19
   14  A    between atoms: C_19  and  O_20
   15  A    between atoms: C_19  and  C_21
   16  A    between atoms: C_21  and  C_22
   17  A    between atoms: C_22  and  N_23
   18  A    between atoms: C_29  and  O_30
   19  A    between atoms: O_30  and  C_31
                            x       y       z     vdW  Elec       q    Type
                         _______ _______ _______ _____ _____    ______ ____

>  <TORSDO>
F 17

>  <SCORE>
-7.226

>  <RMSD_LB>
2.829

>  <RMSD_UB>
10.947

$$$$
CHEMBL173757
 OpenBabel10172500373D

 34 35  0  0  1  0  0  0  0  0999 V2000
  140.3700  138.4990  154.6000 C   0  0  0  0  0  0  0  0  0  0  0  0
  139.5240  138.1150  155.6560 C   0  0  0  0  0  3  0  0  0  0  0  0
  138.2700  137.5750  155.4240 C   0  0  0  0  0  3  0  0  0  0  0  0
  137.7990  137.3800  154.1220 C   0  0  0  0  0  0  0  0  0  0  0  0
  138.6100  137.7840  153.0420 C   0  0  0  0  0  0  0  0  0  0  0  0
  139.8990  138.2770  153.2900 C   0  0  0  0  0  3  0  0  0  0  0  0
  138.2460  137.7360  151.7130 O   0  0  0  0  0  0  0  0  0  0  0  0
  139.0400  138.5040  150.8060 C   0  0  0  0  0  1  0  0  0  0  0  0
  141.6910  139.1750  154.8840 C   0  0  0  0  0  2  0  0  0  0  0  0
  143.9340  139.3520  153.8660 C   0  0  0  0  0  0  0  0  0  0  0  0
  144.5160  139.3390  154.9330 O   0  0  0  0  0  0  0  0  0  0  0  0
  142.5590  139.2680  153.7330 N   0  0  0  0  0  0  0  0  0  0  0  0
  142.1630  139.2710  152.8320 H   0  0  0  0  0  0  0  0  0  0  0  0
  144.6610  139.4610  152.5260 C   0  0  0  0  0  2  0  0  0  0  0  0
  143.8750  140.3600  151.5770 C   0  0  0  0  0  2  0  0  0  0  0  0
  144.7730  141.2490  150.7290 C   0  0  0  0  0  2  0  0  0  0  0  0
  145.7330  142.0230  151.6270 C   0  0  0  0  0  2  0  0  0  0  0  0
  147.0280  142.3350  150.8900 C   0  0  0  0  0  2  0  0  0  0  0  0
  148.2340  142.0010  151.7580 C   0  0  0  0  0  2  0  0  0  0  0  0
  148.5130  141.9500  154.2430 C   0  0  0  0  0  1  0  0  0  0  0  0
  147.7960  141.3340  153.0560 C   0  0  0  0  0  2  0  0  0  0  0  0
  136.6080  136.7920  153.8580 O   0  0  0  0  0  0  0  0  0  0  0  0
  136.2020  135.6810  154.6560 C   0  0  0  0  0  2  0  0  0  0  0  0
  135.1880  134.8720  153.8420 C   0  0  1  0  0  3  0  0  0  0  0  0
  134.1650  134.3480  154.6950 O   0  0  0  0  0  0  0  0  0  0  0  0
  134.0450  134.9390  155.4560 H   0  0  0  0  0  0  0  0  0  0  0  0
  134.5460  135.7440  152.7660 C   0  0  0  0  0  2  0  0  0  0  0  0
  133.3230  135.0770  152.1510 C   0  0  0  0  0  2  0  0  0  0  0  0
  133.6010  134.6530  150.7800 N   0  0  0  0  0  0  0  0  0  0  0  0
  132.5890  134.1340  149.9830 C   0  0  0  0  0  2  0  0  0  0  0  0
  132.8360  133.4460  148.8580 C   0  0  0  0  0  3  0  0  0  0  0  0
  134.2570  133.1630  148.4450 C   0  0  0  0  0  3  0  0  0  0  0  0
  135.2500  134.0550  149.1460 C   0  0  0  0  0  3  0  0  0  0  0  0
  134.8900  134.7130  150.2580 C   0  0  0  0  0  3  0  0  0  0  0  0
  1  9  1  0  0  0  0
  1  2  1  0  0  0  0
  3  2  2  0  0  0  0
  4  3  1  0  0  0  0
  5  6  1  0  0  0  0
  5  4  2  0  0  0  0
  6  1  2  0  0  0  0
  7  5  1  0  0  0  0
  8  7  1  0  0  0  0
 10 11  2  0  0  0  0
 12 10  1  0  0  0  0
 12  9  1  0  0  0  0
 13 12  1  0  0  0  0
 14 10  1  0  0  0  0
 15 14  1  0  0  0  0
 16 15  1  0  0  0  0
 16 17  1  0  0  0  0
 18 17  1  0  0  0  0
 18 19  1  0  0  0  0
 19 21  1  0  0  0  0
 21 20  1  0  0  0  0
 22  4  1  0  0  0  0
 22 23  1  0  0  0  0
 24 27  1  6  0  0  0
 24 23  1  0  0  0  0
 24 25  1  0  0  0  0
 25 26  1  0  0  0  0
 28 27  1  0  0  0  0
 29 28  1  0  0  0  0
 30 29  1  0  0  0  0
 31 30  1  0  0  0  0
 32 31  2  0  0  0  0
 32 33  1  0  0  0  0
 33 34  2  0  0  0  0
 34 29  1  0  0  0  0
M  END
>  <MODEL>
4

>  <REMARK>
 VINA RESULT:    -7.225      1.750     10.999
 INTER + INTRA:         -15.760
 INTER:                 -14.318
 INTRA:                  -1.442
 UNBOUND:                -1.567
  Name = CHEMBL173757
  19 active torsions:
  status: ('A' for Active; 'I' for Inactive)
    1  A    between atoms: C_1  and  C_2
    2  A    between atoms: C_2  and  C_3
    3  A    between atoms: C_3  and  C_4
    4  A    between atoms: C_4  and  C_5
    5  A    between atoms: C_5  and  C_6
    6  A    between atoms: C_6  and  C_7
    7  A    between atoms: C_7  and  C_8
    8  A    between atoms: C_8  and  C_9
    9  A    between atoms: N_11  and  C_12
   10  A    between atoms: C_12  and  C_13
   11  A    between atoms: C_16  and  O_17
   12  A    between atoms: O_17  and  C_18
   13  A    between atoms: C_18  and  C_19
   14  A    between atoms: C_19  and  O_20
   15  A    between atoms: C_19  and  C_21
   16  A    between atoms: C_21  and  C_22
   17  A    between atoms: C_22  and  N_23
   18  A    between atoms: C_29  and  O_30
   19  A    between atoms: O_30  and  C_31
                            x       y       z     vdW  Elec       q    Type
                         _______ _______ _______ _____ _____    ______ ____

>  <TORSDO>
F 17

>  <SCORE>
-7.225

>  <RMSD_LB>
1.750

>  <RMSD_UB>
10.999

$$$$
CHEMBL173757
 OpenBabel10172500373D

 34 35  0  0  1  0  0  0  0  0999 V2000
  140.2440  137.9940  152.5940 C   0  0  0  0  0  0  0  0  0  0  0  0
  140.9810  138.2510  153.7630 C   0  0  0  0  0  3  0  0  0  0  0  0
  142.3420  138.0000  153.8350 C   0  0  0  0  0  3  0  0  0  0  0  0
  143.0390  137.4890  152.7360 C   0  0  0  0  0  0  0  0  0  0  0  0
  142.3220  137.1890  151.5600 C   0  0  0  0  0  0  0  0  0  0  0  0
  140.9570  137.5000  151.4830 C   0  0  0  0  0  3  0  0  0  0  0  0
  142.8550  136.6010  150.4320 O   0  0  0  0  0  0  0  0  0  0  0  0
  141.9850  136.4780  149.3060 C   0  0  0  0  0  1  0  0  0  0  0  0
  138.7440  138.1850  152.5760 C   0  0  0  0  0  2  0  0  0  0  0  0
  136.9130  136.6040  152.0830 C   0  0  0  0  0  0  0  0  0  0  0  0
  136.4040  136.7150  153.1820 O   0  0  0  0  0  0  0  0  0  0  0  0
  138.0510  137.2840  151.6860 N   0  0  0  0  0  0  0  0  0  0  0  0
  138.3950  137.1500  150.7730 H   0  0  0  0  0  0  0  0  0  0  0  0
  136.3490  135.6910  150.9960 C   0  0  0  0  0  2  0  0  0  0  0  0
  136.0000  134.3280  151.5860 C   0  0  0  0  0  2  0  0  0  0  0  0
  134.5390  133.9560  151.3870 C   0  0  0  0  0  2  0  0  0  0  0  0
  133.9120  134.8620  150.3310 C   0  0  0  0  0  2  0  0  0  0  0  0
  132.8220  134.1260  149.5660 C   0  0  0  0  0  2  0  0  0  0  0  0
  132.8530  134.5030  148.0910 C   0  0  0  0  0  2  0  0  0  0  0  0
  132.5100  136.9620  147.7860 C   0  0  0  0  0  1  0  0  0  0  0  0
  133.5370  135.8500  147.8920 C   0  0  0  0  0  2  0  0  0  0  0  0
  144.3790  137.2960  152.7490 O   0  0  0  0  0  0  0  0  0  0  0  0
  145.0020  136.9010  153.9710 C   0  0  0  0  0  2  0  0  0  0  0  0
  146.4910  136.6920  153.6860 C   0  0  1  0  0  3  0  0  0  0  0  0
  146.7950  137.0390  152.3310 O   0  0  0  0  0  0  0  0  0  0  0  0
  146.2040  136.5530  151.7330 H   0  0  0  0  0  0  0  0  0  0  0  0
  147.3410  137.5450  154.6240 C   0  0  0  0  0  2  0  0  0  0  0  0
  146.5540  138.7140  155.1980 C   0  0  0  0  0  2  0  0  0  0  0  0
  146.9310  139.9630  154.5400 N   0  0  0  0  0  0  0  0  0  0  0  0
  145.9700  140.7550  153.9250 C   0  0  0  0  0  2  0  0  0  0  0  0
  146.2830  141.7230  153.0490 C   0  0  0  0  0  3  0  0  0  0  0  0
  147.7200  141.9480  152.6570 C   0  0  0  0  0  3  0  0  0  0  0  0
  148.6870  141.3140  153.6250 C   0  0  0  0  0  3  0  0  0  0  0  0
  148.2620  140.3650  154.4720 C   0  0  0  0  0  3  0  0  0  0  0  0
  1  2  1  0  0  0  0
  2  3  2  0  0  0  0
  4 22  1  0  0  0  0
  4  3  1  0  0  0  0
  5  4  2  0  0  0  0
  6  5  1  0  0  0  0
  6  1  2  0  0  0  0
  7  5  1  0  0  0  0
  8  7  1  0  0  0  0
  9  1  1  0  0  0  0
 10 11  2  0  0  0  0
 12 10  1  0  0  0  0
 12  9  1  0  0  0  0
 13 12  1  0  0  0  0
 14 15  1  0  0  0  0
 14 10  1  0  0  0  0
 16 15  1  0  0  0  0
 17 16  1  0  0  0  0
 18 17  1  0  0  0  0
 19 18  1  0  0  0  0
 20 21  1  0  0  0  0
 21 19  1  0  0  0  0
 22 23  1  0  0  0  0
 24 23  1  1  0  0  0
 24 27  1  0  0  0  0
 25 24  1  0  0  0  0
 26 25  1  0  0  0  0
 27 28  1  0  0  0  0
 29 28  1  0  0  0  0
 30 29  1  0  0  0  0
 31 30  1  0  0  0  0
 32 31  2  0  0  0  0
 32 33  1  0  0  0  0
 33 34  2  0  0  0  0
 34 29  1  0  0  0  0
M  END
>  <MODEL>
5

>  <REMARK>
 VINA RESULT:    -7.124      2.729      3.830
 INTER + INTRA:         -15.562
 INTER:                 -14.045
 INTRA:                  -1.517
 UNBOUND:                -1.567
  Name = CHEMBL173757
  19 active torsions:
  status: ('A' for Active; 'I' for Inactive)
    1  A    between atoms: C_1  and  C_2
    2  A    between atoms: C_2  and  C_3
    3  A    between atoms: C_3  and  C_4
    4  A    between atoms: C_4  and  C_5
    5  A    between atoms: C_5  and  C_6
    6  A    between atoms: C_6  and  C_7
    7  A    between atoms: C_7  and  C_8
    8  A    between atoms: C_8  and  C_9
    9  A    between atoms: N_11  and  C_12
   10  A    between atoms: C_12  and  C_13
   11  A    between atoms: C_16  and  O_17
   12  A    between atoms: O_17  and  C_18
   13  A    between atoms: C_18  and  C_19
   14  A    between atoms: C_19  and  O_20
   15  A    between atoms: C_19  and  C_21
   16  A    between atoms: C_21  and  C_22
   17  A    between atoms: C_22  and  N_23
   18  A    between atoms: C_29  and  O_30
   19  A    between atoms: O_30  and  C_31
                            x       y       z     vdW  Elec       q    Type
                         _______ _______ _______ _____ _____    ______ ____

>  <TORSDO>
F 17

>  <SCORE>
-7.124

>  <RMSD_LB>
2.729

>  <RMSD_UB>
3.830

$$$$
CHEMBL173757
 OpenBabel10172500373D

 34 35  0  0  1  0  0  0  0  0999 V2000
  140.4160  138.4070  153.2990 C   0  0  0  0  0  0  0  0  0  0  0  0
  140.7720  138.4440  151.9380 C   0  0  0  0  0  3  0  0  0  0  0  0
  142.0580  138.7590  151.5320 C   0  0  0  0  0  3  0  0  0  0  0  0
  143.0600  139.0430  152.4650 C   0  0  0  0  0  0  0  0  0  0  0  0
  142.7260  139.0460  153.8350 C   0  0  0  0  0  0  0  0  0  0  0  0
  141.4360  138.6710  154.2350 C   0  0  0  0  0  3  0  0  0  0  0  0
  143.5810  139.3910  154.8610 O   0  0  0  0  0  0  0  0  0  0  0  0
  142.9910  140.0270  155.9960 C   0  0  0  0  0  1  0  0  0  0  0  0
  138.9830  138.1560  153.7090 C   0  0  0  0  0  2  0  0  0  0  0  0
  137.7600  138.2200  155.8530 C   0  0  0  0  0  0  0  0  0  0  0  0
  136.8740  138.9340  155.4270 O   0  0  0  0  0  0  0  0  0  0  0  0
  138.8290  137.7770  155.0940 N   0  0  0  0  0  0  0  0  0  0  0  0
  139.5010  137.1880  155.5090 H   0  0  0  0  0  0  0  0  0  0  0  0
  137.7990  137.7170  157.2950 C   0  0  0  0  0  2  0  0  0  0  0  0
  136.6560  136.7370  157.5380 C   0  0  0  0  0  2  0  0  0  0  0  0
  136.5840  135.6420  156.4850 C   0  0  0  0  0  2  0  0  0  0  0  0
  135.1270  135.2880  156.2030 C   0  0  0  0  0  2  0  0  0  0  0  0
  134.7770  135.5590  154.7470 C   0  0  0  0  0  2  0  0  0  0  0  0
  134.8270  134.2730  153.9340 C   0  0  0  0  0  2  0  0  0  0  0  0
  136.1230  135.8910  152.5360 C   0  0  0  0  0  1  0  0  0  0  0  0
  135.7300  134.4370  152.7180 C   0  0  0  0  0  2  0  0  0  0  0  0
  144.3420  139.2870  152.1060 O   0  0  0  0  0  0  0  0  0  0  0  0
  144.9550  138.4380  151.1370 C   0  0  0  0  0  2  0  0  0  0  0  0
  145.9110  139.2970  150.3060 C   0  0  1  0  0  3  0  0  0  0  0  0
  146.0210  138.7790  148.9760 O   0  0  0  0  0  0  0  0  0  0  0  0
  146.4460  137.9070  149.0030 H   0  0  0  0  0  0  0  0  0  0  0  0
  145.4180  140.7400  150.2430 C   0  0  0  0  0  2  0  0  0  0  0  0
  146.5720  141.7330  150.2040 C   0  0  0  0  0  2  0  0  0  0  0  0
  147.0870  141.9790  151.5490 N   0  0  0  0  0  0  0  0  0  0  0  0
  148.4530  141.9360  151.8010 C   0  0  0  0  0  2  0  0  0  0  0  0
  148.9560  141.8370  153.0410 C   0  0  0  0  0  3  0  0  0  0  0  0
  148.0300  141.7110  154.2230 C   0  0  0  0  0  3  0  0  0  0  0  0
  146.6190  142.1300  153.8950 C   0  0  0  0  0  3  0  0  0  0  0  0
  146.2250  142.2140  152.6160 C   0  0  0  0  0  3  0  0  0  0  0  0
  1  9  1  0  0  0  0
  1  6  1  0  0  0  0
  2  1  2  0  0  0  0
  3  2  1  0  0  0  0
  3  4  2  0  0  0  0
  4  5  1  0  0  0  0
  5  6  2  0  0  0  0
  5  7  1  0  0  0  0
  7  8  1  0  0  0  0
  9 12  1  0  0  0  0
 10 14  1  0  0  0  0
 11 10  2  0  0  0  0
 12 13  1  0  0  0  0
 12 10  1  0  0  0  0
 14 15  1  0  0  0  0
 16 15  1  0  0  0  0
 17 16  1  0  0  0  0
 18 17  1  0  0  0  0
 19 18  1  0  0  0  0
 20 21  1  0  0  0  0
 21 19  1  0  0  0  0
 22  4  1  0  0  0  0
 23 22  1  0  0  0  0
 24 27  1  6  0  0  0
 24 23  1  0  0  0  0
 25 26  1  0  0  0  0
 25 24  1  0  0  0  0
 28 27  1  0  0  0  0
 28 29  1  0  0  0  0
 29 30  1  0  0  0  0
 29 34  1  0  0  0  0
 30 31  1  0  0  0  0
 31 32  2  0  0  0  0
 33 32  1  0  0  0  0
 34 33  2  0  0  0  0
M  END
>  <MODEL>
6

>  <REMARK>
 VINA RESULT:    -7.086      2.856      5.493
 INTER + INTRA:         -15.488
 INTER:                 -13.846
 INTRA:                  -1.642
 UNBOUND:                -1.567
  Name = CHEMBL173757
  19 active torsions:
  status: ('A' for Active; 'I' for Inactive)
    1  A    between atoms: C_1  and  C_2
    2  A    between atoms: C_2  and  C_3
    3  A    between atoms: C_3  and  C_4
    4  A    between atoms: C_4  and  C_5
    5  A    between atoms: C_5  and  C_6
    6  A    between atoms: C_6  and  C_7
    7  A    between atoms: C_7  and  C_8
    8  A    between atoms: C_8  and  C_9
    9  A    between atoms: N_11  and  C_12
   10  A    between atoms: C_12  and  C_13
   11  A    between atoms: C_16  and  O_17
   12  A    between atoms: O_17  and  C_18
   13  A    between atoms: C_18  and  C_19
   14  A    between atoms: C_19  and  O_20
   15  A    between atoms: C_19  and  C_21
   16  A    between atoms: C_21  and  C_22
   17  A    between atoms: C_22  and  N_23
   18  A    between atoms: C_29  and  O_30
   19  A    between atoms: O_30  and  C_31
                            x       y       z     vdW  Elec       q    Type
                         _______ _______ _______ _____ _____    ______ ____

>  <TORSDO>
F 17

>  <SCORE>
-7.086

>  <RMSD_LB>
2.856

>  <RMSD_UB>
5.493

$$$$
CHEMBL173757
 OpenBabel10172500373D

 34 35  0  0  1  0  0  0  0  0999 V2000
  140.5410  138.5350  153.5760 C   0  0  0  0  0  0  0  0  0  0  0  0
  141.0360  137.7320  152.5320 C   0  0  0  0  0  3  0  0  0  0  0  0
  142.3940  137.5230  152.3580 C   0  0  0  0  0  3  0  0  0  0  0  0
  143.3290  138.0950  153.2250 C   0  0  0  0  0  0  0  0  0  0  0  0
  142.8660  138.9310  154.2630 C   0  0  0  0  0  0  0  0  0  0  0  0
  141.4880  139.0890  154.4610 C   0  0  0  0  0  3  0  0  0  0  0  0
  143.6700  139.6320  155.1370 O   0  0  0  0  0  0  0  0  0  0  0  0
  143.0530  140.0910  156.3420 C   0  0  0  0  0  1  0  0  0  0  0  0
  139.0620  138.8250  153.6840 C   0  0  0  0  0  2  0  0  0  0  0  0
  137.3240  137.9540  155.2070 C   0  0  0  0  0  0  0  0  0  0  0  0
  137.0350  139.0500  155.6460 O   0  0  0  0  0  0  0  0  0  0  0  0
  138.2920  137.7370  154.2420 N   0  0  0  0  0  0  0  0  0  0  0  0
  138.4590  136.8190  153.9280 H   0  0  0  0  0  0  0  0  0  0  0  0
  136.6430  136.6680  155.6730 C   0  0  0  0  0  2  0  0  0  0  0  0
  136.2050  135.8420  154.4670 C   0  0  0  0  0  2  0  0  0  0  0  0
  134.6940  135.7910  154.3060 C   0  0  0  0  0  2  0  0  0  0  0  0
  134.2770  134.4290  153.7590 C   0  0  0  0  0  2  0  0  0  0  0  0
  133.5820  134.5760  152.4130 C   0  0  0  0  0  2  0  0  0  0  0  0
  134.2840  133.7400  151.3510 C   0  0  0  0  0  2  0  0  0  0  0  0
  135.7550  134.9280  149.7140 C   0  0  0  0  0  1  0  0  0  0  0  0
  135.6850  134.2750  151.0820 C   0  0  0  0  0  2  0  0  0  0  0  0
  144.6580  137.8560  153.1250 O   0  0  0  0  0  0  0  0  0  0  0  0
  145.2050  136.7310  153.8120 C   0  0  0  0  0  2  0  0  0  0  0  0
  146.6610  137.0590  154.1540 C   0  0  1  0  0  3  0  0  0  0  0  0
  147.4830  136.9570  152.9870 O   0  0  0  0  0  0  0  0  0  0  0  0
  146.9600  137.1840  152.2020 H   0  0  0  0  0  0  0  0  0  0  0  0
  146.7730  138.4690  154.7250 C   0  0  0  0  0  2  0  0  0  0  0  0
  147.8190  139.2980  153.9910 C   0  0  0  0  0  2  0  0  0  0  0  0
  147.1840  140.2000  153.0340 N   0  0  0  0  0  0  0  0  0  0  0  0
  147.4140  140.0610  151.6710 C   0  0  0  0  0  2  0  0  0  0  0  0
  147.1260  141.0270  150.7860 C   0  0  0  0  0  3  0  0  0  0  0  0
  146.5810  142.3480  151.2640 C   0  0  0  0  0  3  0  0  0  0  0  0
  146.0340  142.2710  152.6670 C   0  0  0  0  0  3  0  0  0  0  0  0
  146.3730  141.2480  153.4640 C   0  0  0  0  0  3  0  0  0  0  0  0
  1  9  1  0  0  0  0
  1  6  1  0  0  0  0
  2  1  2  0  0  0  0
  3  2  1  0  0  0  0
  3  4  2  0  0  0  0
  4  5  1  0  0  0  0
  5  6  2  0  0  0  0
  5  7  1  0  0  0  0
  7  8  1  0  0  0  0
  9 12  1  0  0  0  0
 10 11  2  0  0  0  0
 10 14  1  0  0  0  0
 12 10  1  0  0  0  0
 13 12  1  0  0  0  0
 15 14  1  0  0  0  0
 16 15  1  0  0  0  0
 17 16  1  0  0  0  0
 18 17  1  0  0  0  0
 19 18  1  0  0  0  0
 20 21  1  0  0  0  0
 21 19  1  0  0  0  0
 22  4  1  0  0  0  0
 22 23  1  0  0  0  0
 24 23  1  6  0  0  0
 24 27  1  0  0  0  0
 25 24  1  0  0  0  0
 26 25  1  0  0  0  0
 28 27  1  0  0  0  0
 29 34  1  0  0  0  0
 29 28  1  0  0  0  0
 30 29  1  0  0  0  0
 31 32  2  0  0  0  0
 31 30  1  0  0  0  0
 32 33  1  0  0  0  0
 33 34  2  0  0  0  0
M  END
>  <MODEL>
7

>  <REMARK>
 VINA RESULT:    -7.082      2.371      4.521
 INTER + INTRA:         -15.481
 INTER:                 -13.932
 INTRA:                  -1.549
 UNBOUND:                -1.567
  Name = CHEMBL173757
  19 active torsions:
  status: ('A' for Active; 'I' for Inactive)
    1  A    between atoms: C_1  and  C_2
    2  A    between atoms: C_2  and  C_3
    3  A    between atoms: C_3  and  C_4
    4  A    between atoms: C_4  and  C_5
    5  A    between atoms: C_5  and  C_6
    6  A    between atoms: C_6  and  C_7
    7  A    between atoms: C_7  and  C_8
    8  A    between atoms: C_8  and  C_9
    9  A    between atoms: N_11  and  C_12
   10  A    between atoms: C_12  and  C_13
   11  A    between atoms: C_16  and  O_17
   12  A    between atoms: O_17  and  C_18
   13  A    between atoms: C_18  and  C_19
   14  A    between atoms: C_19  and  O_20
   15  A    between atoms: C_19  and  C_21
   16  A    between atoms: C_21  and  C_22
   17  A    between atoms: C_22  and  N_23
   18  A    between atoms: C_29  and  O_30
   19  A    between atoms: O_30  and  C_31
                            x       y       z     vdW  Elec       q    Type
                         _______ _______ _______ _____ _____    ______ ____

>  <TORSDO>
F 17

>  <SCORE>
-7.082

>  <RMSD_LB>
2.371

>  <RMSD_UB>
4.521

$$$$
CHEMBL173757
 OpenBabel10172500373D

 34 35  0  0  1  0  0  0  0  0999 V2000
  139.1710  137.5370  156.1240 C   0  0  0  0  0  0  0  0  0  0  0  0
  138.7020  137.4820  154.7990 C   0  0  0  0  0  3  0  0  0  0  0  0
  137.3920  137.1410  154.5050 C   0  0  0  0  0  3  0  0  0  0  0  0
  136.4790  136.8470  155.5220 C   0  0  0  0  0  0  0  0  0  0  0  0
  136.9260  136.8610  156.8580 C   0  0  0  0  0  0  0  0  0  0  0  0
  138.2390  137.2620  157.1450 C   0  0  0  0  0  3  0  0  0  0  0  0
  136.1680  136.5080  157.9550 O   0  0  0  0  0  0  0  0  0  0  0  0
  136.4930  135.2670  158.5820 C   0  0  0  0  0  1  0  0  0  0  0  0
  140.6290  137.8160  156.4090 C   0  0  0  0  0  2  0  0  0  0  0  0
  142.1880  139.0840  154.9730 C   0  0  0  0  0  0  0  0  0  0  0  0
  142.2320  140.0430  155.7170 O   0  0  0  0  0  0  0  0  0  0  0  0
  141.4430  137.9440  155.2230 N   0  0  0  0  0  0  0  0  0  0  0  0
  141.4690  137.2030  154.5750 H   0  0  0  0  0  0  0  0  0  0  0  0
  142.9600  139.0180  153.6560 C   0  0  0  0  0  2  0  0  0  0  0  0
  142.7970  137.6410  153.0220 C   0  0  0  0  0  2  0  0  0  0  0  0
  142.1630  137.6990  151.6410 C   0  0  0  0  0  2  0  0  0  0  0  0
  140.6660  137.4240  151.7450 C   0  0  0  0  0  2  0  0  0  0  0  0
  139.9490  137.8470  150.4710 C   0  0  0  0  0  2  0  0  0  0  0  0
  139.0450  139.0440  150.7360 C   0  0  0  0  0  2  0  0  0  0  0  0
  137.8300  140.5200  149.1240 C   0  0  0  0  0  1  0  0  0  0  0  0
  139.1910  140.0850  149.6330 C   0  0  0  0  0  2  0  0  0  0  0  0
  135.1750  136.5760  155.2740 O   0  0  0  0  0  0  0  0  0  0  0  0
  134.7370  135.2190  155.3220 C   0  0  0  0  0  2  0  0  0  0  0  0
  134.6880  134.6970  153.8840 C   0  0  1  0  0  3  0  0  0  0  0  0
  133.9820  133.4530  153.8270 O   0  0  0  0  0  0  0  0  0  0  0  0
  133.1960  133.5530  153.2680 H   0  0  0  0  0  0  0  0  0  0  0  0
  134.0000  135.7060  152.9700 C   0  0  0  0  0  2  0  0  0  0  0  0
  134.8310  136.0070  151.7290 C   0  0  0  0  0  2  0  0  0  0  0  0
  134.1430  135.5500  150.5240 N   0  0  0  0  0  0  0  0  0  0  0  0
  134.3050  134.2480  150.0690 C   0  0  0  0  0  2  0  0  0  0  0  0
  133.9680  133.8680  148.8280 C   0  0  0  0  0  3  0  0  0  0  0  0
  133.4400  134.8830  147.8470 C   0  0  0  0  0  3  0  0  0  0  0  0
  132.9640  136.1430  148.5230 C   0  0  0  0  0  3  0  0  0  0  0  0
  133.3490  136.4170  149.7780 C   0  0  0  0  0  3  0  0  0  0  0  0
  1  9  1  0  0  0  0
  1  6  1  0  0  0  0
  2  1  2  0  0  0  0
  3  2  1  0  0  0  0
  3  4  2  0  0  0  0
  4  5  1  0  0  0  0
  5  6  2  0  0  0  0
  5  7  1  0  0  0  0
  7  8  1  0  0  0  0
 10 12  1  0  0  0  0
 10 11  2  0  0  0  0
 12  9  1  0  0  0  0
 13 12  1  0  0  0  0
 14 10  1  0  0  0  0
 15 14  1  0  0  0  0
 16 17  1  0  0  0  0
 16 15  1  0  0  0  0
 18 19  1  0  0  0  0
 18 17  1  0  0  0  0
 20 21  1  0  0  0  0
 21 19  1  0  0  0  0
 22 23  1  0  0  0  0
 22  4  1  0  0  0  0
 24 27  1  6  0  0  0
 24 23  1  0  0  0  0
 25 24  1  0  0  0  0
 26 25  1  0  0  0  0
 28 27  1  0  0  0  0
 29 28  1  0  0  0  0
 30 29  1  0  0  0  0
 31 30  1  0  0  0  0
 32 33  1  0  0  0  0
 32 31  2  0  0  0  0
 33 34  2  0  0  0  0
 34 29  1  0  0  0  0
M  END
>  <MODEL>
8

>  <REMARK>
 VINA RESULT:    -7.074      2.293      8.982
 INTER + INTRA:         -15.464
 INTER:                 -13.506
 INTRA:                  -1.958
 UNBOUND:                -1.567
  Name = CHEMBL173757
  19 active torsions:
  status: ('A' for Active; 'I' for Inactive)
    1  A    between atoms: C_1  and  C_2
    2  A    between atoms: C_2  and  C_3
    3  A    between atoms: C_3  and  C_4
    4  A    between atoms: C_4  and  C_5
    5  A    between atoms: C_5  and  C_6
    6  A    between atoms: C_6  and  C_7
    7  A    between atoms: C_7  and  C_8
    8  A    between atoms: C_8  and  C_9
    9  A    between atoms: N_11  and  C_12
   10  A    between atoms: C_12  and  C_13
   11  A    between atoms: C_16  and  O_17
   12  A    between atoms: O_17  and  C_18
   13  A    between atoms: C_18  and  C_19
   14  A    between atoms: C_19  and  O_20
   15  A    between atoms: C_19  and  C_21
   16  A    between atoms: C_21  and  C_22
   17  A    between atoms: C_22  and  N_23
   18  A    between atoms: C_29  and  O_30
   19  A    between atoms: O_30  and  C_31
                            x       y       z     vdW  Elec       q    Type
                         _______ _______ _______ _____ _____    ______ ____

>  <TORSDO>
F 17

>  <SCORE>
-7.074

>  <RMSD_LB>
2.293

>  <RMSD_UB>
8.982

$$$$
CHEMBL173757
 OpenBabel10172500373D

 34 35  0  0  1  0  0  0  0  0999 V2000
  143.1260  137.3510  152.5240 C   0  0  0  0  0  0  0  0  0  0  0  0
  142.7670  137.7630  153.8200 C   0  0  0  0  0  3  0  0  0  0  0  0
  141.4730  138.1480  154.1280 C   0  0  0  0  0  3  0  0  0  0  0  0
  140.4650  138.1300  153.1590 C   0  0  0  0  0  0  0  0  0  0  0  0
  140.8000  137.7520  151.8420 C   0  0  0  0  0  0  0  0  0  0  0  0
  142.1010  137.3120  151.5580 C   0  0  0  0  0  3  0  0  0  0  0  0
  139.9380  137.7700  150.7660 O   0  0  0  0  0  0  0  0  0  0  0  0
  139.9940  138.9230  149.9240 C   0  0  0  0  0  1  0  0  0  0  0  0
  144.5660  137.0300  152.1940 C   0  0  0  0  0  2  0  0  0  0  0  0
  146.0640  138.0030  150.4890 C   0  0  0  0  0  0  0  0  0  0  0  0
  146.1710  136.9660  149.8640 O   0  0  0  0  0  0  0  0  0  0  0  0
  145.2980  138.1420  151.6330 N   0  0  0  0  0  0  0  0  0  0  0  0
  145.2520  139.0200  152.0760 H   0  0  0  0  0  0  0  0  0  0  0  0
  146.7680  139.2960  150.0780 C   0  0  0  0  0  2  0  0  0  0  0  0
  145.7390  140.3470  149.6780 C   0  0  0  0  0  2  0  0  0  0  0  0
  146.3760  141.6340  149.1750 C   0  0  0  0  0  2  0  0  0  0  0  0
  146.5230  142.6240  150.3260 C   0  0  0  0  0  2  0  0  0  0  0  0
  145.5230  142.3190  151.4320 C   0  0  0  0  0  2  0  0  0  0  0  0
  146.1950  142.3880  152.7970 C   0  0  0  0  0  2  0  0  0  0  0  0
  148.1850  141.4980  154.0230 C   0  0  0  0  0  1  0  0  0  0  0  0
  147.6680  142.0130  152.6930 C   0  0  0  0  0  2  0  0  0  0  0  0
  139.1770  138.4340  153.4410 O   0  0  0  0  0  0  0  0  0  0  0  0
  138.7840  138.5470  154.8090 C   0  0  0  0  0  2  0  0  0  0  0  0
  137.4850  137.7580  154.9850 C   0  0  1  0  0  3  0  0  0  0  0  0
  137.0560  137.2130  153.7320 O   0  0  0  0  0  0  0  0  0  0  0  0
  137.4760  137.7020  153.0070 H   0  0  0  0  0  0  0  0  0  0  0  0
  137.6780  136.6220  155.9860 C   0  0  0  0  0  2  0  0  0  0  0  0
  136.4560  135.7170  156.0610 C   0  0  0  0  0  2  0  0  0  0  0  0
  135.9580  135.6340  157.4320 N   0  0  0  0  0  0  0  0  0  0  0  0
  134.8700  134.8280  157.7410 C   0  0  0  0  0  2  0  0  0  0  0  0
  134.1810  134.9500  158.8860 C   0  0  0  0  0  3  0  0  0  0  0  0
  134.5420  136.0320  159.8710 C   0  0  0  0  0  3  0  0  0  0  0  0
  135.9210  136.5930  159.6290 C   0  0  0  0  0  3  0  0  0  0  0  0
  136.5280  136.3950  158.4490 C   0  0  0  0  0  3  0  0  0  0  0  0
  1  2  1  0  0  0  0
  2  3  2  0  0  0  0
  4 22  1  0  0  0  0
  4  3  1  0  0  0  0
  5  4  2  0  0  0  0
  6  5  1  0  0  0  0
  6  1  2  0  0  0  0
  7  5  1  0  0  0  0
  8  7  1  0  0  0  0
  9  1  1  0  0  0  0
 10 12  1  0  0  0  0
 11 10  2  0  0  0  0
 12 13  1  0  0  0  0
 12  9  1  0  0  0  0
 14 10  1  0  0  0  0
 15 14  1  0  0  0  0
 16 15  1  0  0  0  0
 16 17  1  0  0  0  0
 17 18  1  0  0  0  0
 18 19  1  0  0  0  0
 21 19  1  0  0  0  0
 21 20  1  0  0  0  0
 22 23  1  0  0  0  0
 24 23  1  6  0  0  0
 24 27  1  0  0  0  0
 25 24  1  0  0  0  0
 26 25  1  0  0  0  0
 27 28  1  0  0  0  0
 28 29  1  0  0  0  0
 29 30  1  0  0  0  0
 29 34  1  0  0  0  0
 30 31  1  0  0  0  0
 31 32  2  0  0  0  0
 33 32  1  0  0  0  0
 34 33  2  0  0  0  0
M  END
>  <MODEL>
9

>  <REMARK>
 VINA RESULT:    -7.002      4.026     10.950
 INTER + INTRA:         -15.323
 INTER:                 -13.757
 INTRA:                  -1.567
 UNBOUND:                -1.567
  Name = CHEMBL173757
  19 active torsions:
  status: ('A' for Active; 'I' for Inactive)
    1  A    between atoms: C_1  and  C_2
    2  A    between atoms: C_2  and  C_3
    3  A    between atoms: C_3  and  C_4
    4  A    between atoms: C_4  and  C_5
    5  A    between atoms: C_5  and  C_6
    6  A    between atoms: C_6  and  C_7
    7  A    between atoms: C_7  and  C_8
    8  A    between atoms: C_8  and  C_9
    9  A    between atoms: N_11  and  C_12
   10  A    between atoms: C_12  and  C_13
   11  A    between atoms: C_16  and  O_17
   12  A    between atoms: O_17  and  C_18
   13  A    between atoms: C_18  and  C_19
   14  A    between atoms: C_19  and  O_20
   15  A    between atoms: C_19  and  C_21
   16  A    between atoms: C_21  and  C_22
   17  A    between atoms: C_22  and  N_23
   18  A    between atoms: C_29  and  O_30
   19  A    between atoms: O_30  and  C_31
                            x       y       z     vdW  Elec       q    Type
                         _______ _______ _______ _____ _____    ______ ____

>  <TORSDO>
F 17

>  <SCORE>
-7.002

>  <RMSD_LB>
4.026

>  <RMSD_UB>
10.950

$$$$
