CHEMBL3456994
 OpenBabel10172500253D

 25 26  0  0  0  0  0  0  0  0999 V2000
  135.2610  135.1910  154.7320 N   0  0  0  0  0  0  0  0  0  0  0  0
  134.5020  134.0710  154.5710 C   0  0  0  0  0  0  0  0  0  0  0  0
  134.2330  133.2990  155.4890 O   0  0  0  0  0  0  0  0  0  0  0  0
  134.0010  133.8390  153.3190 N   0  0  0  0  0  0  0  0  0  0  0  0
  134.3090  134.5900  152.2210 C   0  0  0  0  0  0  0  0  0  0  0  0
  135.2130  135.5350  152.1260 N   0  0  0  0  0  0  0  0  0  0  0  0
  135.1980  136.1420  150.8970 N   0  0  0  0  0  0  0  0  0  0  0  0
  134.2540  135.6530  150.1180 C   0  0  0  0  0  0  0  0  0  0  0  0
  133.3920  134.3270  150.8110 S   0  0  0  0  0  0  0  0  0  0  0  0
  135.4430  135.7390  153.9350 H   0  0  0  0  0  0  0  0  0  0  0  0
  133.3820  133.0820  153.2020 H   0  0  0  0  0  0  0  0  0  0  0  0
  133.9180  136.2090  148.7660 C   0  0  0  0  0  3  0  0  0  0  0  0
  133.7400  135.0610  147.7650 C   0  0  0  0  0  1  0  0  0  0  0  0
  132.6440  137.0510  148.8360 C   0  0  0  0  0  1  0  0  0  0  0  0
  135.8180  135.6300  155.9830 C   0  0  0  0  0  2  0  0  0  0  0  0
  138.3610  137.9530  154.3460 C   0  0  0  0  0  0  0  0  0  0  0  0
  137.2600  137.1160  154.5480 C   0  0  0  0  0  3  0  0  0  0  0  0
  137.0420  136.4890  155.7860 C   0  0  0  0  0  0  0  0  0  0  0  0
  137.9760  136.6700  156.8170 C   0  0  0  0  0  3  0  0  0  0  0  0
  139.0830  137.5000  156.6270 C   0  0  0  0  0  3  0  0  0  0  0  0
  139.2670  138.1370  155.4000 C   0  0  0  0  0  0  0  0  0  0  0  0
  138.8360  137.8400  152.0180 C   0  0  0  0  0  1  0  0  0  0  0  0
  138.6340  138.6240  153.1850 O   0  0  0  0  0  0  0  0  0  0  0  0
  140.3450  138.9640  155.2220 O   0  0  0  0  0  0  0  0  0  0  0  0
  140.4560  139.7140  155.7740 H   0  0  0  0  0  0  0  0  0  0  0  0
  1 15  1  0  0  0  0
  2  1  1  0  0  0  0
  2  3  2  0  0  0  0
  4  2  1  0  0  0  0
  5  4  1  0  0  0  0
  6  5  2  0  0  0  0
  7  6  1  0  0  0  0
  8  9  1  0  0  0  0
  8  7  2  0  0  0  0
  9  5  1  0  0  0  0
 10  1  1  0  0  0  0
 11  4  1  0  0  0  0
 12 14  1  0  0  0  0
 12  8  1  0  0  0  0
 13 12  1  0  0  0  0
 16 17  2  0  0  0  0
 16 21  1  0  0  0  0
 17 18  1  0  0  0  0
 18 15  1  0  0  0  0
 18 19  2  0  0  0  0
 20 19  1  0  0  0  0
 21 20  2  0  0  0  0
 22 23  1  0  0  0  0
 23 16  1  0  0  0  0
 24 21  1  0  0  0  0
 24 25  1  0  0  0  0
M  END
>  <MODEL>
1

>  <REMARK>
 VINA RESULT:    -7.541      0.000      0.000
 INTER + INTRA:          -9.740
 INTER:                  -9.213
 INTRA:                  -0.527
 UNBOUND:                -0.215
  Name = CHEMBL3456994
  8 active torsions:
  status: ('A' for Active; 'I' for Inactive)
    1  A    between atoms: C_1  and  O_2
    2  A    between atoms: O_2  and  C_3
    3  A    between atoms: C_5  and  C_6
    4  A    between atoms: C_6  and  N_7
    5  A    between atoms: C_14  and  C_15
    6  A    between atoms: C_15  and  C_16
    7  A    between atoms: C_15  and  C_17
    8  A    between atoms: C_21  and  O_22
                            x       y       z     vdW  Elec       q    Type
                         _______ _______ _______ _____ _____    ______ ____

>  <TORSDO>
F 5

>  <SCORE>
-7.541

>  <RMSD_LB>
0.000

>  <RMSD_UB>
0.000

$$$$
CHEMBL3456994
 OpenBabel10172500253D

 25 26  0  0  0  0  0  0  0  0999 V2000
  138.1330  137.4040  154.7130 N   0  0  0  0  0  0  0  0  0  0  0  0
  138.8030  138.4740  154.2000 C   0  0  0  0  0  0  0  0  0  0  0  0
  139.4200  139.2800  154.8940 O   0  0  0  0  0  0  0  0  0  0  0  0
  138.7960  138.6140  152.8400 N   0  0  0  0  0  0  0  0  0  0  0  0
  138.0760  137.8210  151.9930 C   0  0  0  0  0  0  0  0  0  0  0  0
  137.1780  136.9180  152.3110 N   0  0  0  0  0  0  0  0  0  0  0  0
  136.7100  136.2470  151.2120 N   0  0  0  0  0  0  0  0  0  0  0  0
  137.2990  136.6460  150.1030 C   0  0  0  0  0  0  0  0  0  0  0  0
  138.3950  137.9620  150.3260 S   0  0  0  0  0  0  0  0  0  0  0  0
  137.6480  136.8230  154.0820 H   0  0  0  0  0  0  0  0  0  0  0  0
  139.3440  139.3310  152.4470 H   0  0  0  0  0  0  0  0  0  0  0  0
  137.0820  136.0020  148.7660 C   0  0  0  0  0  3  0  0  0  0  0  0
  137.7210  134.6080  148.7540 C   0  0  0  0  0  1  0  0  0  0  0  0
  135.5880  135.8990  148.4580 C   0  0  0  0  0  1  0  0  0  0  0  0
  138.0810  137.0610  156.1080 C   0  0  0  0  0  2  0  0  0  0  0  0
  134.8050  135.1490  155.7140 C   0  0  0  0  0  0  0  0  0  0  0  0
  135.9460  135.9070  155.4340 C   0  0  0  0  0  3  0  0  0  0  0  0
  136.8360  136.2820  156.4530 C   0  0  0  0  0  0  0  0  0  0  0  0
  136.5440  135.9310  157.7790 C   0  0  0  0  0  3  0  0  0  0  0  0
  135.4050  135.1770  158.0730 C   0  0  0  0  0  3  0  0  0  0  0  0
  134.5480  134.7880  157.0440 C   0  0  0  0  0  0  0  0  0  0  0  0
  133.9140  135.3670  153.5190 C   0  0  0  0  0  1  0  0  0  0  0  0
  133.9020  134.7160  154.7820 O   0  0  0  0  0  0  0  0  0  0  0  0
  133.4410  134.0350  157.3340 O   0  0  0  0  0  0  0  0  0  0  0  0
  132.9900  134.1580  158.1460 H   0  0  0  0  0  0  0  0  0  0  0  0
  1 15  1  0  0  0  0
  2  1  1  0  0  0  0
  2  3  2  0  0  0  0
  4  2  1  0  0  0  0
  5  6  2  0  0  0  0
  5  4  1  0  0  0  0
  7  6  1  0  0  0  0
  8  9  1  0  0  0  0
  8  7  2  0  0  0  0
  9  5  1  0  0  0  0
 10  1  1  0  0  0  0
 11  4  1  0  0  0  0
 12  8  1  0  0  0  0
 13 12  1  0  0  0  0
 14 12  1  0  0  0  0
 15 18  1  0  0  0  0
 16 21  1  0  0  0  0
 17 16  2  0  0  0  0
 17 18  1  0  0  0  0
 18 19  2  0  0  0  0
 19 20  1  0  0  0  0
 21 24  1  0  0  0  0
 21 20  2  0  0  0  0
 22 23  1  0  0  0  0
 23 16  1  0  0  0  0
 24 25  1  0  0  0  0
M  END
>  <MODEL>
2

>  <REMARK>
 VINA RESULT:    -7.301      2.562      4.876
 INTER + INTRA:          -9.436
 INTER:                  -8.867
 INTRA:                  -0.569
 UNBOUND:                -0.215
  Name = CHEMBL3456994
  8 active torsions:
  status: ('A' for Active; 'I' for Inactive)
    1  A    between atoms: C_1  and  O_2
    2  A    between atoms: O_2  and  C_3
    3  A    between atoms: C_5  and  C_6
    4  A    between atoms: C_6  and  N_7
    5  A    between atoms: C_14  and  C_15
    6  A    between atoms: C_15  and  C_16
    7  A    between atoms: C_15  and  C_17
    8  A    between atoms: C_21  and  O_22
                            x       y       z     vdW  Elec       q    Type
                         _______ _______ _______ _____ _____    ______ ____

>  <TORSDO>
F 5

>  <SCORE>
-7.301

>  <RMSD_LB>
2.562

>  <RMSD_UB>
4.876

$$$$
CHEMBL3456994
 OpenBabel10172500253D

 25 26  0  0  0  0  0  0  0  0999 V2000
  145.8190  141.5430  149.5580 N   0  0  0  0  0  0  0  0  0  0  0  0
  145.6890  140.9950  148.3170 C   0  0  0  0  0  0  0  0  0  0  0  0
  146.4660  141.2260  147.3920 O   0  0  0  0  0  0  0  0  0  0  0  0
  144.6510  140.1240  148.1320 N   0  0  0  0  0  0  0  0  0  0  0  0
  143.6920  139.8670  149.0690 C   0  0  0  0  0  0  0  0  0  0  0  0
  143.5020  140.4850  150.2110 N   0  0  0  0  0  0  0  0  0  0  0  0
  142.4980  139.9120  150.9470 N   0  0  0  0  0  0  0  0  0  0  0  0
  141.9880  138.8550  150.3460 C   0  0  0  0  0  0  0  0  0  0  0  0
  142.6380  138.5620  148.7730 S   0  0  0  0  0  0  0  0  0  0  0  0
  145.1370  141.3180  150.2320 H   0  0  0  0  0  0  0  0  0  0  0  0
  144.5910  139.6540  147.2690 H   0  0  0  0  0  0  0  0  0  0  0  0
  140.9660  137.9530  150.9720 C   0  0  0  0  0  3  0  0  0  0  0  0
  141.4590  137.4900  152.3480 C   0  0  0  0  0  1  0  0  0  0  0  0
  139.6270  138.6780  151.1090 C   0  0  0  0  0  1  0  0  0  0  0  0
  146.8800  142.4290  149.9560 C   0  0  0  0  0  2  0  0  0  0  0  0
  147.0200  141.2590  153.5830 C   0  0  0  0  0  0  0  0  0  0  0  0
  146.5460  141.6250  152.3200 C   0  0  0  0  0  3  0  0  0  0  0  0
  147.4200  142.0860  151.3220 C   0  0  0  0  0  0  0  0  0  0  0  0
  148.7830  142.2280  151.6190 C   0  0  0  0  0  3  0  0  0  0  0  0
  149.2700  141.8690  152.8790 C   0  0  0  0  0  3  0  0  0  0  0  0
  148.3910  141.3860  153.8480 C   0  0  0  0  0  0  0  0  0  0  0  0
  145.9030  139.3970  154.5530 C   0  0  0  0  0  1  0  0  0  0  0  0
  146.2460  140.7750  154.6020 O   0  0  0  0  0  0  0  0  0  0  0  0
  148.8740  141.0190  155.0770 O   0  0  0  0  0  0  0  0  0  0  0  0
  148.4590  140.3300  155.5570 H   0  0  0  0  0  0  0  0  0  0  0  0
  1 15  1  0  0  0  0
  1 10  1  0  0  0  0
  2  1  1  0  0  0  0
  3  2  2  0  0  0  0
  4  2  1  0  0  0  0
  4  5  1  0  0  0  0
  5  6  2  0  0  0  0
  6  7  1  0  0  0  0
  8  7  2  0  0  0  0
  8 12  1  0  0  0  0
  9  5  1  0  0  0  0
  9  8  1  0  0  0  0
 11  4  1  0  0  0  0
 12 14  1  0  0  0  0
 12 13  1  0  0  0  0
 15 18  1  0  0  0  0
 16 21  1  0  0  0  0
 16 23  1  0  0  0  0
 17 16  2  0  0  0  0
 18 19  2  0  0  0  0
 18 17  1  0  0  0  0
 19 20  1  0  0  0  0
 20 21  2  0  0  0  0
 21 24  1  0  0  0  0
 22 23  1  0  0  0  0
 24 25  1  0  0  0  0
M  END
>  <MODEL>
3

>  <REMARK>
 VINA RESULT:    -7.295      8.483     11.052
 INTER + INTRA:          -9.429
 INTER:                  -8.926
 INTRA:                  -0.504
 UNBOUND:                -0.215
  Name = CHEMBL3456994
  8 active torsions:
  status: ('A' for Active; 'I' for Inactive)
    1  A    between atoms: C_1  and  O_2
    2  A    between atoms: O_2  and  C_3
    3  A    between atoms: C_5  and  C_6
    4  A    between atoms: C_6  and  N_7
    5  A    between atoms: C_14  and  C_15
    6  A    between atoms: C_15  and  C_16
    7  A    between atoms: C_15  and  C_17
    8  A    between atoms: C_21  and  O_22
                            x       y       z     vdW  Elec       q    Type
                         _______ _______ _______ _____ _____    ______ ____

>  <TORSDO>
F 5

>  <SCORE>
-7.295

>  <RMSD_LB>
8.483

>  <RMSD_UB>
11.052

$$$$
CHEMBL3456994
 OpenBabel10172500253D

 25 26  0  0  0  0  0  0  0  0999 V2000
  137.6690  137.5670  154.0860 N   0  0  0  0  0  0  0  0  0  0  0  0
  137.2580  136.7340  155.0830 C   0  0  0  0  0  0  0  0  0  0  0  0
  137.8010  136.6810  156.1860 O   0  0  0  0  0  0  0  0  0  0  0  0
  136.1660  135.9520  154.8250 N   0  0  0  0  0  0  0  0  0  0  0  0
  135.5470  135.8800  153.6100 C   0  0  0  0  0  0  0  0  0  0  0  0
  135.9500  136.3990  152.4750 N   0  0  0  0  0  0  0  0  0  0  0  0
  135.0410  136.2040  151.4680 N   0  0  0  0  0  0  0  0  0  0  0  0
  133.9650  135.5710  151.8900 C   0  0  0  0  0  0  0  0  0  0  0  0
  134.0500  135.0710  153.5410 S   0  0  0  0  0  0  0  0  0  0  0  0
  137.1870  137.5250  153.2280 H   0  0  0  0  0  0  0  0  0  0  0  0
  135.8040  135.4070  155.5610 H   0  0  0  0  0  0  0  0  0  0  0  0
  132.7510  135.3330  151.0420 C   0  0  0  0  0  3  0  0  0  0  0  0
  132.6650  136.4070  149.9510 C   0  0  0  0  0  1  0  0  0  0  0  0
  132.8050  133.9420  150.4100 C   0  0  0  0  0  1  0  0  0  0  0  0
  138.7550  138.5020  154.1950 C   0  0  0  0  0  2  0  0  0  0  0  0
  142.3300  137.7490  153.1030 C   0  0  0  0  0  0  0  0  0  0  0  0
  141.2270  138.1450  153.8630 C   0  0  0  0  0  3  0  0  0  0  0  0
  139.9270  138.1110  153.3300 C   0  0  0  0  0  0  0  0  0  0  0  0
  139.7460  137.7200  151.9960 C   0  0  0  0  0  3  0  0  0  0  0  0
  140.8410  137.3240  151.2240 C   0  0  0  0  0  3  0  0  0  0  0  0
  142.1200  137.3370  151.7790 C   0  0  0  0  0  0  0  0  0  0  0  0
  144.2290  138.9730  153.8470 C   0  0  0  0  0  1  0  0  0  0  0  0
  143.6230  137.7230  153.5490 O   0  0  0  0  0  0  0  0  0  0  0  0
  143.1900  136.9340  151.0230 O   0  0  0  0  0  0  0  0  0  0  0  0
  143.4200  137.4070  150.2480 H   0  0  0  0  0  0  0  0  0  0  0  0
  1 15  1  0  0  0  0
  1  2  1  0  0  0  0
  2  3  2  0  0  0  0
  4  2  1  0  0  0  0
  4 11  1  0  0  0  0
  5  4  1  0  0  0  0
  6  5  2  0  0  0  0
  7  8  2  0  0  0  0
  7  6  1  0  0  0  0
  8  9  1  0  0  0  0
  9  5  1  0  0  0  0
 10  1  1  0  0  0  0
 12  8  1  0  0  0  0
 13 12  1  0  0  0  0
 14 12  1  0  0  0  0
 16 23  1  0  0  0  0
 16 17  1  0  0  0  0
 18 17  2  0  0  0  0
 18 15  1  0  0  0  0
 19 18  1  0  0  0  0
 20 21  1  0  0  0  0
 20 19  2  0  0  0  0
 21 16  2  0  0  0  0
 23 22  1  0  0  0  0
 24 21  1  0  0  0  0
 25 24  1  0  0  0  0
M  END
>  <MODEL>
4

>  <REMARK>
 VINA RESULT:    -7.231      2.729      3.997
 INTER + INTRA:          -9.349
 INTER:                  -8.900
 INTRA:                  -0.449
 UNBOUND:                -0.215
  Name = CHEMBL3456994
  8 active torsions:
  status: ('A' for Active; 'I' for Inactive)
    1  A    between atoms: C_1  and  O_2
    2  A    between atoms: O_2  and  C_3
    3  A    between atoms: C_5  and  C_6
    4  A    between atoms: C_6  and  N_7
    5  A    between atoms: C_14  and  C_15
    6  A    between atoms: C_15  and  C_16
    7  A    between atoms: C_15  and  C_17
    8  A    between atoms: C_21  and  O_22
                            x       y       z     vdW  Elec       q    Type
                         _______ _______ _______ _____ _____    ______ ____

>  <TORSDO>
F 5

>  <SCORE>
-7.231

>  <RMSD_LB>
2.729

>  <RMSD_UB>
3.997

$$$$
CHEMBL3456994
 OpenBabel10172500253D

 25 26  0  0  0  0  0  0  0  0999 V2000
  143.2390  139.2130  153.9440 N   0  0  0  0  0  0  0  0  0  0  0  0
  142.2950  139.4430  154.9010 C   0  0  0  0  0  0  0  0  0  0  0  0
  142.5430  139.9820  155.9780 O   0  0  0  0  0  0  0  0  0  0  0  0
  141.0120  139.0740  154.6040 N   0  0  0  0  0  0  0  0  0  0  0  0
  140.6530  138.3990  153.4730 C   0  0  0  0  0  0  0  0  0  0  0  0
  141.4450  137.8660  152.5730 N   0  0  0  0  0  0  0  0  0  0  0  0
  140.7460  137.3360  151.5200 N   0  0  0  0  0  0  0  0  0  0  0  0
  139.4470  137.5190  151.6480 C   0  0  0  0  0  0  0  0  0  0  0  0
  138.9890  138.2610  153.1390 S   0  0  0  0  0  0  0  0  0  0  0  0
  142.9530  138.7560  153.1200 H   0  0  0  0  0  0  0  0  0  0  0  0
  140.3040  139.3090  155.2460 H   0  0  0  0  0  0  0  0  0  0  0  0
  138.4460  137.1590  150.5910 C   0  0  0  0  0  3  0  0  0  0  0  0
  137.7690  138.4310  150.0670 C   0  0  0  0  0  1  0  0  0  0  0  0
  139.1270  136.4130  149.4430 C   0  0  0  0  0  1  0  0  0  0  0  0
  144.6230  139.5880  154.0520 C   0  0  0  0  0  2  0  0  0  0  0  0
  144.9650  140.9270  150.4980 C   0  0  0  0  0  0  0  0  0  0  0  0
  144.6010  140.1400  151.5940 C   0  0  0  0  0  3  0  0  0  0  0  0
  145.0730  140.4310  152.8850 C   0  0  0  0  0  0  0  0  0  0  0  0
  145.9650  141.4980  153.0620 C   0  0  0  0  0  3  0  0  0  0  0  0
  146.3400  142.2900  151.9740 C   0  0  0  0  0  3  0  0  0  0  0  0
  145.8380  142.0050  150.7050 C   0  0  0  0  0  0  0  0  0  0  0  0
  143.9030  139.4930  148.9250 C   0  0  0  0  0  1  0  0  0  0  0  0
  144.5310  140.7340  149.2150 O   0  0  0  0  0  0  0  0  0  0  0  0
  146.1950  142.7930  149.6420 O   0  0  0  0  0  0  0  0  0  0  0  0
  145.6190  142.8770  148.9070 H   0  0  0  0  0  0  0  0  0  0  0  0
  1 15  1  0  0  0  0
  1  2  1  0  0  0  0
  2  3  2  0  0  0  0
  4  2  1  0  0  0  0
  4 11  1  0  0  0  0
  5  4  1  0  0  0  0
  6  5  2  0  0  0  0
  7  8  2  0  0  0  0
  7  6  1  0  0  0  0
  8  9  1  0  0  0  0
  9  5  1  0  0  0  0
 10  1  1  0  0  0  0
 12  8  1  0  0  0  0
 13 12  1  0  0  0  0
 14 12  1  0  0  0  0
 16 21  2  0  0  0  0
 16 17  1  0  0  0  0
 17 18  2  0  0  0  0
 18 19  1  0  0  0  0
 18 15  1  0  0  0  0
 20 19  2  0  0  0  0
 21 20  1  0  0  0  0
 22 23  1  0  0  0  0
 23 16  1  0  0  0  0
 24 21  1  0  0  0  0
 25 24  1  0  0  0  0
M  END
>  <MODEL>
5

>  <REMARK>
 VINA RESULT:    -6.982      6.191      8.139
 INTER + INTRA:          -9.034
 INTER:                  -8.506
 INTRA:                  -0.528
 UNBOUND:                -0.215
  Name = CHEMBL3456994
  8 active torsions:
  status: ('A' for Active; 'I' for Inactive)
    1  A    between atoms: C_1  and  O_2
    2  A    between atoms: O_2  and  C_3
    3  A    between atoms: C_5  and  C_6
    4  A    between atoms: C_6  and  N_7
    5  A    between atoms: C_14  and  C_15
    6  A    between atoms: C_15  and  C_16
    7  A    between atoms: C_15  and  C_17
    8  A    between atoms: C_21  and  O_22
                            x       y       z     vdW  Elec       q    Type
                         _______ _______ _______ _____ _____    ______ ____

>  <TORSDO>
F 5

>  <SCORE>
-6.982

>  <RMSD_LB>
6.191

>  <RMSD_UB>
8.139

$$$$
CHEMBL3456994
 OpenBabel10172500253D

 25 26  0  0  0  0  0  0  0  0999 V2000
  137.9400  137.7040  153.9530 N   0  0  0  0  0  0  0  0  0  0  0  0
  137.3020  136.9700  154.9080 C   0  0  0  0  0  0  0  0  0  0  0  0
  137.6100  136.9970  156.0980 O   0  0  0  0  0  0  0  0  0  0  0  0
  136.2510  136.1980  154.4950 N   0  0  0  0  0  0  0  0  0  0  0  0
  135.8860  136.0400  153.1890 C   0  0  0  0  0  0  0  0  0  0  0  0
  136.5300  136.4500  152.1220 N   0  0  0  0  0  0  0  0  0  0  0  0
  135.8340  136.1940  150.9690 N   0  0  0  0  0  0  0  0  0  0  0  0
  134.6690  135.6290  151.2120 C   0  0  0  0  0  0  0  0  0  0  0  0
  134.3990  135.2680  152.8790 S   0  0  0  0  0  0  0  0  0  0  0  0
  137.6390  137.6020  153.0210 H   0  0  0  0  0  0  0  0  0  0  0  0
  135.7260  135.7280  155.1820 H   0  0  0  0  0  0  0  0  0  0  0  0
  133.6400  135.3520  150.1560 C   0  0  0  0  0  3  0  0  0  0  0  0
  132.8520  134.0890  150.5210 C   0  0  0  0  0  1  0  0  0  0  0  0
  132.6910  136.5420  150.0100 C   0  0  0  0  0  1  0  0  0  0  0  0
  139.0220  138.6160  154.2080 C   0  0  0  0  0  2  0  0  0  0  0  0
  141.4360  137.3400  151.5450 C   0  0  0  0  0  0  0  0  0  0  0  0
  140.2650  137.7130  152.2110 C   0  0  0  0  0  3  0  0  0  0  0  0
  140.3000  138.1780  153.5360 C   0  0  0  0  0  0  0  0  0  0  0  0
  141.5270  138.2190  154.2130 C   0  0  0  0  0  3  0  0  0  0  0  0
  142.7040  137.8460  153.5610 C   0  0  0  0  0  3  0  0  0  0  0  0
  142.6540  137.4140  152.2360 C   0  0  0  0  0  0  0  0  0  0  0  0
  141.1780  137.8460  149.2350 C   0  0  0  0  0  1  0  0  0  0  0  0
  141.4970  136.9040  150.2490 O   0  0  0  0  0  0  0  0  0  0  0  0
  143.8120  137.0630  151.5930 O   0  0  0  0  0  0  0  0  0  0  0  0
  144.5370  136.7280  152.0840 H   0  0  0  0  0  0  0  0  0  0  0  0
  1 15  1  0  0  0  0
  1  2  1  0  0  0  0
  2  3  2  0  0  0  0
  4  2  1  0  0  0  0
  4 11  1  0  0  0  0
  5  4  1  0  0  0  0
  6  5  2  0  0  0  0
  7  8  2  0  0  0  0
  7  6  1  0  0  0  0
  8  9  1  0  0  0  0
  9  5  1  0  0  0  0
 10  1  1  0  0  0  0
 12 13  1  0  0  0  0
 12  8  1  0  0  0  0
 14 12  1  0  0  0  0
 16 17  2  0  0  0  0
 16 21  1  0  0  0  0
 17 18  1  0  0  0  0
 18 15  1  0  0  0  0
 18 19  2  0  0  0  0
 20 19  1  0  0  0  0
 21 20  2  0  0  0  0
 22 23  1  0  0  0  0
 23 16  1  0  0  0  0
 24 25  1  0  0  0  0
 24 21  1  0  0  0  0
M  END
>  <MODEL>
6

>  <REMARK>
 VINA RESULT:    -6.784      2.727      3.689
 INTER + INTRA:          -8.783
 INTER:                  -8.288
 INTRA:                  -0.496
 UNBOUND:                -0.215
  Name = CHEMBL3456994
  8 active torsions:
  status: ('A' for Active; 'I' for Inactive)
    1  A    between atoms: C_1  and  O_2
    2  A    between atoms: O_2  and  C_3
    3  A    between atoms: C_5  and  C_6
    4  A    between atoms: C_6  and  N_7
    5  A    between atoms: C_14  and  C_15
    6  A    between atoms: C_15  and  C_16
    7  A    between atoms: C_15  and  C_17
    8  A    between atoms: C_21  and  O_22
                            x       y       z     vdW  Elec       q    Type
                         _______ _______ _______ _____ _____    ______ ____

>  <TORSDO>
F 5

>  <SCORE>
-6.784

>  <RMSD_LB>
2.727

>  <RMSD_UB>
3.689

$$$$
CHEMBL3456994
 OpenBabel10172500253D

 25 26  0  0  0  0  0  0  0  0999 V2000
  143.5050  138.0150  150.3260 N   0  0  0  0  0  0  0  0  0  0  0  0
  143.5330  138.8180  149.2250 C   0  0  0  0  0  0  0  0  0  0  0  0
  142.7690  138.6820  148.2710 O   0  0  0  0  0  0  0  0  0  0  0  0
  144.4450  139.8370  149.2260 N   0  0  0  0  0  0  0  0  0  0  0  0
  145.3860  140.0200  150.1980 C   0  0  0  0  0  0  0  0  0  0  0  0
  145.6830  139.2110  151.1880 N   0  0  0  0  0  0  0  0  0  0  0  0
  146.6230  139.7480  152.0280 N   0  0  0  0  0  0  0  0  0  0  0  0
  146.9780  140.9620  151.6600 C   0  0  0  0  0  0  0  0  0  0  0  0
  146.2570  141.4830  150.1800 S   0  0  0  0  0  0  0  0  0  0  0  0
  144.1690  138.1850  151.0330 H   0  0  0  0  0  0  0  0  0  0  0  0
  144.4230  140.4770  148.4780 H   0  0  0  0  0  0  0  0  0  0  0  0
  147.8910  141.8420  152.4600 C   0  0  0  0  0  3  0  0  0  0  0  0
  148.3790  141.0870  153.7020 C   0  0  0  0  0  1  0  0  0  0  0  0
  149.0830  142.2870  151.6120 C   0  0  0  0  0  1  0  0  0  0  0  0
  142.5770  136.9360  150.5310 C   0  0  0  0  0  2  0  0  0  0  0  0
  138.9800  137.6910  151.5480 C   0  0  0  0  0  0  0  0  0  0  0  0
  140.1050  137.3460  150.7940 C   0  0  0  0  0  3  0  0  0  0  0  0
  141.3910  137.3600  151.3610 C   0  0  0  0  0  0  0  0  0  0  0  0
  141.5470  137.7770  152.6900 C   0  0  0  0  0  3  0  0  0  0  0  0
  140.4310  138.1280  153.4530 C   0  0  0  0  0  3  0  0  0  0  0  0
  139.1590  138.0810  152.8830 C   0  0  0  0  0  0  0  0  0  0  0  0
  137.1050  136.4070  150.8450 C   0  0  0  0  0  1  0  0  0  0  0  0
  137.6920  137.6780  151.0860 O   0  0  0  0  0  0  0  0  0  0  0  0
  138.0650  138.4110  153.6380 O   0  0  0  0  0  0  0  0  0  0  0  0
  137.6800  139.2620  153.5580 H   0  0  0  0  0  0  0  0  0  0  0  0
  1 15  1  0  0  0  0
  1 10  1  0  0  0  0
  2  4  1  0  0  0  0
  2  1  1  0  0  0  0
  3  2  2  0  0  0  0
  4  5  1  0  0  0  0
  5  6  2  0  0  0  0
  6  7  1  0  0  0  0
  8  7  2  0  0  0  0
  8 12  1  0  0  0  0
  9  5  1  0  0  0  0
  9  8  1  0  0  0  0
 11  4  1  0  0  0  0
 12 13  1  0  0  0  0
 14 12  1  0  0  0  0
 15 18  1  0  0  0  0
 16 21  1  0  0  0  0
 17 18  1  0  0  0  0
 17 16  2  0  0  0  0
 18 19  2  0  0  0  0
 19 20  1  0  0  0  0
 21 20  2  0  0  0  0
 21 24  1  0  0  0  0
 22 23  1  0  0  0  0
 23 16  1  0  0  0  0
 25 24  1  0  0  0  0
M  END
>  <MODEL>
7

>  <REMARK>
 VINA RESULT:    -6.708      7.465     10.504
 INTER + INTRA:          -8.688
 INTER:                  -8.220
 INTRA:                  -0.468
 UNBOUND:                -0.215
  Name = CHEMBL3456994
  8 active torsions:
  status: ('A' for Active; 'I' for Inactive)
    1  A    between atoms: C_1  and  O_2
    2  A    between atoms: O_2  and  C_3
    3  A    between atoms: C_5  and  C_6
    4  A    between atoms: C_6  and  N_7
    5  A    between atoms: C_14  and  C_15
    6  A    between atoms: C_15  and  C_16
    7  A    between atoms: C_15  and  C_17
    8  A    between atoms: C_21  and  O_22
                            x       y       z     vdW  Elec       q    Type
                         _______ _______ _______ _____ _____    ______ ____

>  <TORSDO>
F 5

>  <SCORE>
-6.708

>  <RMSD_LB>
7.465

>  <RMSD_UB>
10.504

$$$$
CHEMBL3456994
 OpenBabel10172500253D

 25 26  0  0  0  0  0  0  0  0999 V2000
  143.6860  137.9450  152.6800 N   0  0  0  0  0  0  0  0  0  0  0  0
  144.4010  137.3510  153.6770 C   0  0  0  0  0  0  0  0  0  0  0  0
  144.1040  136.2620  154.1660 O   0  0  0  0  0  0  0  0  0  0  0  0
  145.5180  138.0090  154.1130 N   0  0  0  0  0  0  0  0  0  0  0  0
  145.8840  139.2560  153.6920 C   0  0  0  0  0  0  0  0  0  0  0  0
  145.1930  140.0840  152.9450 N   0  0  0  0  0  0  0  0  0  0  0  0
  145.8990  141.2190  152.6440 N   0  0  0  0  0  0  0  0  0  0  0  0
  147.1160  141.1910  153.1490 C   0  0  0  0  0  0  0  0  0  0  0  0
  147.4350  139.8060  154.1300 S   0  0  0  0  0  0  0  0  0  0  0  0
  143.9860  138.8280  152.3660 H   0  0  0  0  0  0  0  0  0  0  0  0
  146.0930  137.5570  154.7720 H   0  0  0  0  0  0  0  0  0  0  0  0
  148.1560  142.2360  152.8760 C   0  0  0  0  0  3  0  0  0  0  0  0
  149.2280  142.1970  153.9710 C   0  0  0  0  0  1  0  0  0  0  0  0
  148.7950  142.0090  151.5050 C   0  0  0  0  0  1  0  0  0  0  0  0
  142.5230  137.3760  152.0560 C   0  0  0  0  0  2  0  0  0  0  0  0
  140.0070  138.3600  154.7470 C   0  0  0  0  0  0  0  0  0  0  0  0
  141.1610  137.8950  154.1100 C   0  0  0  0  0  3  0  0  0  0  0  0
  141.2450  137.8400  152.7090 C   0  0  0  0  0  0  0  0  0  0  0  0
  140.1310  138.2120  151.9430 C   0  0  0  0  0  3  0  0  0  0  0  0
  138.9710  138.6750  152.5670 C   0  0  0  0  0  3  0  0  0  0  0  0
  138.9160  138.7500  153.9580 C   0  0  0  0  0  0  0  0  0  0  0  0
  140.3230  137.3980  156.9000 C   0  0  0  0  0  1  0  0  0  0  0  0
  139.8500  138.4740  156.1010 O   0  0  0  0  0  0  0  0  0  0  0  0
  137.7810  139.2200  154.5670 O   0  0  0  0  0  0  0  0  0  0  0  0
  137.3520  138.7030  155.2200 H   0  0  0  0  0  0  0  0  0  0  0  0
  1  2  1  0  0  0  0
  2  4  1  0  0  0  0
  2  3  2  0  0  0  0
  4 11  1  0  0  0  0
  5  4  1  0  0  0  0
  5  9  1  0  0  0  0
  6  5  2  0  0  0  0
  7  6  1  0  0  0  0
  7  8  2  0  0  0  0
  8  9  1  0  0  0  0
 10  1  1  0  0  0  0
 12  8  1  0  0  0  0
 12 13  1  0  0  0  0
 14 12  1  0  0  0  0
 15  1  1  0  0  0  0
 15 18  1  0  0  0  0
 16 23  1  0  0  0  0
 17 16  1  0  0  0  0
 18 17  2  0  0  0  0
 19 20  2  0  0  0  0
 19 18  1  0  0  0  0
 20 21  1  0  0  0  0
 21 24  1  0  0  0  0
 21 16  2  0  0  0  0
 23 22  1  0  0  0  0
 24 25  1  0  0  0  0
M  END
>  <MODEL>
8

>  <REMARK>
 VINA RESULT:    -6.702      7.514     10.446
 INTER + INTRA:          -8.680
 INTER:                  -8.465
 INTRA:                  -0.215
 UNBOUND:                -0.215
  Name = CHEMBL3456994
  8 active torsions:
  status: ('A' for Active; 'I' for Inactive)
    1  A    between atoms: C_1  and  O_2
    2  A    between atoms: O_2  and  C_3
    3  A    between atoms: C_5  and  C_6
    4  A    between atoms: C_6  and  N_7
    5  A    between atoms: C_14  and  C_15
    6  A    between atoms: C_15  and  C_16
    7  A    between atoms: C_15  and  C_17
    8  A    between atoms: C_21  and  O_22
                            x       y       z     vdW  Elec       q    Type
                         _______ _______ _______ _____ _____    ______ ____

>  <TORSDO>
F 5

>  <SCORE>
-6.702

>  <RMSD_LB>
7.514

>  <RMSD_UB>
10.446

$$$$
CHEMBL3456994
 OpenBabel10172500253D

 25 26  0  0  0  0  0  0  0  0999 V2000
  143.4000  138.9690  154.1250 N   0  0  0  0  0  0  0  0  0  0  0  0
  142.0580  139.0500  154.3520 C   0  0  0  0  0  0  0  0  0  0  0  0
  141.5720  139.6190  155.3270 O   0  0  0  0  0  0  0  0  0  0  0  0
  141.2380  138.4880  153.4130 N   0  0  0  0  0  0  0  0  0  0  0  0
  141.6820  137.7670  152.3420 C   0  0  0  0  0  0  0  0  0  0  0  0
  142.9070  137.3640  152.1010 N   0  0  0  0  0  0  0  0  0  0  0  0
  143.0130  136.7330  150.8890 N   0  0  0  0  0  0  0  0  0  0  0  0
  141.8660  136.7140  150.2410 C   0  0  0  0  0  0  0  0  0  0  0  0
  140.5450  137.3750  151.1360 S   0  0  0  0  0  0  0  0  0  0  0  0
  143.7000  138.4750  153.3280 H   0  0  0  0  0  0  0  0  0  0  0  0
  140.2660  138.6110  153.5160 H   0  0  0  0  0  0  0  0  0  0  0  0
  141.7090  136.2060  148.8380 C   0  0  0  0  0  3  0  0  0  0  0  0
  142.0970  137.3060  147.8440 C   0  0  0  0  0  1  0  0  0  0  0  0
  142.5780  134.9670  148.6190 C   0  0  0  0  0  1  0  0  0  0  0  0
  144.4100  139.5520  154.9650 C   0  0  0  0  0  2  0  0  0  0  0  0
  148.0500  139.8260  153.8620 C   0  0  0  0  0  0  0  0  0  0  0  0
  146.7410  140.1550  154.2240 C   0  0  0  0  0  3  0  0  0  0  0  0
  145.8010  139.1580  154.5350 C   0  0  0  0  0  0  0  0  0  0  0  0
  146.1740  137.8110  154.4300 C   0  0  0  0  0  3  0  0  0  0  0  0
  147.4790  137.4680  154.0670 C   0  0  0  0  0  3  0  0  0  0  0  0
  148.4060  138.4710  153.7900 C   0  0  0  0  0  0  0  0  0  0  0  0
  148.9420  142.0070  154.1860 C   0  0  0  0  0  1  0  0  0  0  0  0
  149.0350  140.7300  153.5720 O   0  0  0  0  0  0  0  0  0  0  0  0
  149.6900  138.1320  153.4490 O   0  0  0  0  0  0  0  0  0  0  0  0
  150.0330  138.3810  152.6130 H   0  0  0  0  0  0  0  0  0  0  0  0
  1  2  1  0  0  0  0
  1 15  1  0  0  0  0
  2  3  2  0  0  0  0
  4 11  1  0  0  0  0
  4  2  1  0  0  0  0
  5  4  1  0  0  0  0
  6  5  2  0  0  0  0
  7  6  1  0  0  0  0
  8  7  2  0  0  0  0
  8  9  1  0  0  0  0
  9  5  1  0  0  0  0
 10  1  1  0  0  0  0
 12  8  1  0  0  0  0
 13 12  1  0  0  0  0
 14 12  1  0  0  0  0
 16 17  1  0  0  0  0
 17 18  2  0  0  0  0
 18 15  1  0  0  0  0
 19 18  1  0  0  0  0
 20 19  2  0  0  0  0
 21 16  2  0  0  0  0
 21 20  1  0  0  0  0
 23 16  1  0  0  0  0
 23 22  1  0  0  0  0
 24 21  1  0  0  0  0
 25 24  1  0  0  0  0
M  END
>  <MODEL>
9

>  <REMARK>
 VINA RESULT:    -6.689      7.175      9.084
 INTER + INTRA:          -8.664
 INTER:                  -8.224
 INTRA:                  -0.440
 UNBOUND:                -0.215
  Name = CHEMBL3456994
  8 active torsions:
  status: ('A' for Active; 'I' for Inactive)
    1  A    between atoms: C_1  and  O_2
    2  A    between atoms: O_2  and  C_3
    3  A    between atoms: C_5  and  C_6
    4  A    between atoms: C_6  and  N_7
    5  A    between atoms: C_14  and  C_15
    6  A    between atoms: C_15  and  C_16
    7  A    between atoms: C_15  and  C_17
    8  A    between atoms: C_21  and  O_22
                            x       y       z     vdW  Elec       q    Type
                         _______ _______ _______ _____ _____    ______ ____

>  <TORSDO>
F 5

>  <SCORE>
-6.689

>  <RMSD_LB>
7.175

>  <RMSD_UB>
9.084

$$$$
