CHEMBL4912400
 OpenBabel10172500163D

 24 24  0  0  1  0  0  0  0  0999 V2000
  137.5950  138.2380  155.8290 C   0  0  0  0  0  0  0  0  0  0  0  0
  136.9200  139.2170  155.5380 O   0  0  0  0  0  0  0  0  0  0  0  0
  138.2870  137.4800  154.9110 N   0  0  0  0  0  0  0  0  0  0  0  0
  138.7680  136.6760  155.2160 H   0  0  0  0  0  0  0  0  0  0  0  0
  137.7270  137.7350  157.2730 C   0  0  0  0  0  2  0  0  0  0  0  0
  136.4780  137.9050  158.0380 N   0  0  0  0  0  4  0  0  0  0  0  0
  136.2950  138.9040  158.1340 H   0  0  0  0  0  0  0  0  0  0  0  0
  135.7460  137.4210  157.5190 H   0  0  0  0  0  0  0  0  0  0  0  0
  136.5140  137.3050  159.3920 C   0  0  1  0  0  3  0  0  0  0  0  0
  136.8900  138.3290  160.4720 C   0  0  0  0  0  1  0  0  0  0  0  0
  135.1430  136.6820  159.7600 C   0  0  0  0  0  2  0  0  0  0  0  0
  136.4090  134.7110  159.4840 C   0  0  0  0  0  1  0  0  0  0  0  0
  135.1130  135.2910  159.4300 O   0  0  0  0  0  0  0  0  0  0  0  0
  138.3230  137.8370  153.5110 C   0  0  0  0  0  2  0  0  0  0  0  0
  137.3890  136.9990  152.6740 C   0  0  0  0  0  0  0  0  0  0  0  0
  137.4340  137.0380  151.2780 C   0  0  0  0  0  3  0  0  0  0  0  0
  136.5850  136.2260  150.5140 C   0  0  0  0  0  3  0  0  0  0  0  0
  135.6850  135.3430  151.1240 C   0  0  0  0  0  0  0  0  0  0  0  0
  135.6510  135.2790  152.5270 C   0  0  0  0  0  0  0  0  0  0  0  0
  136.4830  136.1220  153.2840 C   0  0  0  0  0  3  0  0  0  0  0  0
  134.8140  134.5500  150.4250 O   0  0  0  0  0  0  0  0  0  0  0  0
  133.9160  135.1760  149.5190 C   0  0  0  0  0  1  0  0  0  0  0  0
  134.8410  134.4870  153.3030 O   0  0  0  0  0  0  0  0  0  0  0  0
  133.7060  135.1090  153.8910 C   0  0  0  0  0  1  0  0  0  0  0  0
  1  5  1  0  0  0  0
  2  1  2  0  0  0  0
  3  4  1  0  0  0  0
  3  1  1  0  0  0  0
  5  6  1  0  0  0  0
  6  7  1  0  0  0  0
  6  9  1  0  0  0  0
  8  6  1  0  0  0  0
  9 11  1  0  0  0  0
  9 10  1  1  0  0  0
 13 12  1  0  0  0  0
 13 11  1  0  0  0  0
 14  3  1  0  0  0  0
 15 20  1  0  0  0  0
 15 14  1  0  0  0  0
 16 15  2  0  0  0  0
 17 18  2  0  0  0  0
 17 16  1  0  0  0  0
 18 19  1  0  0  0  0
 19 20  2  0  0  0  0
 19 23  1  0  0  0  0
 21 18  1  0  0  0  0
 22 21  1  0  0  0  0
 23 24  1  0  0  0  0
M  END
>  <MODEL>
1

>  <REMARK>
 VINA RESULT:    -5.454      0.000      0.000
 INTER + INTRA:          -9.183
 INTER:                  -8.625
 INTRA:                  -0.558
 UNBOUND:                -0.860
  Name = CHEMBL4912400
  13 active torsions:
  status: ('A' for Active; 'I' for Inactive)
    1  A    between atoms: C_1  and  O_2
    2  A    between atoms: O_2  and  C_3
    3  A    between atoms: C_3  and  C_4
    4  A    between atoms: C_4  and  C_5
    5  A    between atoms: C_4  and  N_6
    6  A    between atoms: N_6  and  C_7
    7  A    between atoms: C_7  and  C_8
    8  A    between atoms: N_10  and  C_11
    9  A    between atoms: C_11  and  C_12
   10  A    between atoms: C_15  and  O_16
   11  A    between atoms: O_16  and  C_17
   12  A    between atoms: C_18  and  O_19
   13  A    between atoms: O_19  and  C_20
                            x       y       z     vdW  Elec       q    Type
                         _______ _______ _______ _____ _____    ______ ____

>  <TORSDO>
F 9

>  <SCORE>
-5.454

>  <RMSD_LB>
0.000

>  <RMSD_UB>
0.000

$$$$
CHEMBL4912400
 OpenBabel10172500163D

 24 24  0  0  1  0  0  0  0  0999 V2000
  146.2340  140.7910  154.1210 C   0  0  0  0  0  0  0  0  0  0  0  0
  147.0520  139.9250  154.4060 O   0  0  0  0  0  0  0  0  0  0  0  0
  144.8860  140.6900  154.3800 N   0  0  0  0  0  0  0  0  0  0  0  0
  144.2820  141.4060  154.0750 H   0  0  0  0  0  0  0  0  0  0  0  0
  146.6340  142.0930  153.4160 C   0  0  0  0  0  2  0  0  0  0  0  0
  145.5940  142.5650  152.4840 N   0  0  0  0  0  4  0  0  0  0  0  0
  144.7590  141.9950  152.6220 H   0  0  0  0  0  0  0  0  0  0  0  0
  145.4360  143.5500  152.6920 H   0  0  0  0  0  0  0  0  0  0  0  0
  145.9830  142.4840  151.0560 C   0  0  1  0  0  3  0  0  0  0  0  0
  147.4700  142.1450  150.8780 C   0  0  0  0  0  1  0  0  0  0  0  0
  145.1410  141.4180  150.3100 C   0  0  0  0  0  2  0  0  0  0  0  0
  145.3410  139.0720  150.4450 C   0  0  0  0  0  1  0  0  0  0  0  0
  144.9540  140.2580  151.1250 O   0  0  0  0  0  0  0  0  0  0  0  0
  144.3350  139.5560  155.0860 C   0  0  0  0  0  2  0  0  0  0  0  0
  142.9840  139.1420  154.5600 C   0  0  0  0  0  0  0  0  0  0  0  0
  141.8590  139.1150  155.3870 C   0  0  0  0  0  3  0  0  0  0  0  0
  140.6040  138.7650  154.8740 C   0  0  0  0  0  3  0  0  0  0  0  0
  140.4370  138.4490  153.5200 C   0  0  0  0  0  0  0  0  0  0  0  0
  141.5580  138.4980  152.6740 C   0  0  0  0  0  0  0  0  0  0  0  0
  142.8200  138.8190  153.2060 C   0  0  0  0  0  3  0  0  0  0  0  0
  139.2380  138.0720  152.9740 O   0  0  0  0  0  0  0  0  0  0  0  0
  138.1660  137.7700  153.8550 C   0  0  0  0  0  1  0  0  0  0  0  0
  141.5970  138.2210  151.3300 O   0  0  0  0  0  0  0  0  0  0  0  0
  142.2510  137.0200  150.9400 C   0  0  0  0  0  1  0  0  0  0  0  0
  1  3  1  0  0  0  0
  1  2  2  0  0  0  0
  3 14  1  0  0  0  0
  4  3  1  0  0  0  0
  5  1  1  0  0  0  0
  6  7  1  0  0  0  0
  6  8  1  0  0  0  0
  6  5  1  0  0  0  0
  9 10  1  1  0  0  0
  9  6  1  0  0  0  0
 11  9  1  0  0  0  0
 11 13  1  0  0  0  0
 12 13  1  0  0  0  0
 15 14  1  0  0  0  0
 15 16  1  0  0  0  0
 17 16  2  0  0  0  0
 18 17  1  0  0  0  0
 19 20  1  0  0  0  0
 19 18  2  0  0  0  0
 20 15  2  0  0  0  0
 21 18  1  0  0  0  0
 21 22  1  0  0  0  0
 23 19  1  0  0  0  0
 24 23  1  0  0  0  0
M  END
>  <MODEL>
2

>  <REMARK>
 VINA RESULT:    -5.447      6.966      9.768
 INTER + INTRA:          -9.173
 INTER:                  -8.231
 INTRA:                  -0.942
 UNBOUND:                -0.860
  Name = CHEMBL4912400
  13 active torsions:
  status: ('A' for Active; 'I' for Inactive)
    1  A    between atoms: C_1  and  O_2
    2  A    between atoms: O_2  and  C_3
    3  A    between atoms: C_3  and  C_4
    4  A    between atoms: C_4  and  C_5
    5  A    between atoms: C_4  and  N_6
    6  A    between atoms: N_6  and  C_7
    7  A    between atoms: C_7  and  C_8
    8  A    between atoms: N_10  and  C_11
    9  A    between atoms: C_11  and  C_12
   10  A    between atoms: C_15  and  O_16
   11  A    between atoms: O_16  and  C_17
   12  A    between atoms: C_18  and  O_19
   13  A    between atoms: O_19  and  C_20
                            x       y       z     vdW  Elec       q    Type
                         _______ _______ _______ _____ _____    ______ ____

>  <TORSDO>
F 9

>  <SCORE>
-5.447

>  <RMSD_LB>
6.966

>  <RMSD_UB>
9.768

$$$$
CHEMBL4912400
 OpenBabel10172500163D

 24 24  0  0  1  0  0  0  0  0999 V2000
  137.0830  137.8010  155.1520 C   0  0  0  0  0  0  0  0  0  0  0  0
  136.9670  138.9050  155.6690 O   0  0  0  0  0  0  0  0  0  0  0  0
  137.9880  137.5090  154.1560 N   0  0  0  0  0  0  0  0  0  0  0  0
  137.9880  136.6100  153.7540 H   0  0  0  0  0  0  0  0  0  0  0  0
  136.2030  136.6110  155.5570 C   0  0  0  0  0  2  0  0  0  0  0  0
  136.3380  135.4760  154.6260 N   0  0  0  0  0  4  0  0  0  0  0  0
  137.0680  135.7020  153.9500 H   0  0  0  0  0  0  0  0  0  0  0  0
  136.5650  134.6570  155.1910 H   0  0  0  0  0  0  0  0  0  0  0  0
  135.0960  135.1550  153.8830 C   0  0  1  0  0  3  0  0  0  0  0  0
  133.8340  135.5370  154.6680 C   0  0  0  0  0  1  0  0  0  0  0  0
  135.0650  135.8820  152.5140 C   0  0  0  0  0  2  0  0  0  0  0  0
  136.5660  135.2230  150.8200 C   0  0  0  0  0  1  0  0  0  0  0  0
  136.3840  136.0200  151.9820 O   0  0  0  0  0  0  0  0  0  0  0  0
  138.9370  138.4930  153.6860 C   0  0  0  0  0  2  0  0  0  0  0  0
  139.8560  137.9520  152.6200 C   0  0  0  0  0  0  0  0  0  0  0  0
  139.3830  137.6400  151.3430 C   0  0  0  0  0  3  0  0  0  0  0  0
  140.2580  137.1740  150.3520 C   0  0  0  0  0  3  0  0  0  0  0  0
  141.6270  137.0250  150.6070 C   0  0  0  0  0  0  0  0  0  0  0  0
  142.1160  137.3610  151.8800 C   0  0  0  0  0  0  0  0  0  0  0  0
  141.2250  137.7970  152.8770 C   0  0  0  0  0  3  0  0  0  0  0  0
  142.5190  136.5470  149.6840 O   0  0  0  0  0  0  0  0  0  0  0  0
  142.0420  135.6450  148.6950 C   0  0  0  0  0  1  0  0  0  0  0  0
  143.4140  137.2810  152.3200 O   0  0  0  0  0  0  0  0  0  0  0  0
  143.6320  137.4530  153.7140 C   0  0  0  0  0  1  0  0  0  0  0  0
  1  5  1  0  0  0  0
  1  2  2  0  0  0  0
  3  1  1  0  0  0  0
  4  3  1  0  0  0  0
  6  8  1  0  0  0  0
  6  5  1  0  0  0  0
  7  6  1  0  0  0  0
  9  6  1  0  0  0  0
  9 10  1  1  0  0  0
 11  9  1  0  0  0  0
 12 13  1  0  0  0  0
 13 11  1  0  0  0  0
 14  3  1  0  0  0  0
 15 20  1  0  0  0  0
 15 14  1  0  0  0  0
 16 15  2  0  0  0  0
 17 18  2  0  0  0  0
 17 16  1  0  0  0  0
 18 19  1  0  0  0  0
 19 23  1  0  0  0  0
 19 20  2  0  0  0  0
 21 18  1  0  0  0  0
 22 21  1  0  0  0  0
 23 24  1  0  0  0  0
M  END
>  <MODEL>
3

>  <REMARK>
 VINA RESULT:    -5.435      3.550      5.991
 INTER + INTRA:          -9.154
 INTER:                  -8.109
 INTRA:                  -1.044
 UNBOUND:                -0.860
  Name = CHEMBL4912400
  13 active torsions:
  status: ('A' for Active; 'I' for Inactive)
    1  A    between atoms: C_1  and  O_2
    2  A    between atoms: O_2  and  C_3
    3  A    between atoms: C_3  and  C_4
    4  A    between atoms: C_4  and  C_5
    5  A    between atoms: C_4  and  N_6
    6  A    between atoms: N_6  and  C_7
    7  A    between atoms: C_7  and  C_8
    8  A    between atoms: N_10  and  C_11
    9  A    between atoms: C_11  and  C_12
   10  A    between atoms: C_15  and  O_16
   11  A    between atoms: O_16  and  C_17
   12  A    between atoms: C_18  and  O_19
   13  A    between atoms: O_19  and  C_20
                            x       y       z     vdW  Elec       q    Type
                         _______ _______ _______ _____ _____    ______ ____

>  <TORSDO>
F 9

>  <SCORE>
-5.435

>  <RMSD_LB>
3.550

>  <RMSD_UB>
5.991

$$$$
CHEMBL4912400
 OpenBabel10172500163D

 24 24  0  0  1  0  0  0  0  0999 V2000
  137.6110  137.9830  155.7740 C   0  0  0  0  0  0  0  0  0  0  0  0
  136.9590  138.9420  155.3810 O   0  0  0  0  0  0  0  0  0  0  0  0
  138.9270  137.7580  155.4360 N   0  0  0  0  0  0  0  0  0  0  0  0
  139.3710  136.9370  155.7510 H   0  0  0  0  0  0  0  0  0  0  0  0
  137.0120  136.9040  156.6840 C   0  0  0  0  0  2  0  0  0  0  0  0
  136.6160  137.4410  157.9980 N   0  0  0  0  0  4  0  0  0  0  0  0
  137.2570  138.1960  158.2420 H   0  0  0  0  0  0  0  0  0  0  0  0
  135.6510  137.7590  157.9090 H   0  0  0  0  0  0  0  0  0  0  0  0
  136.6380  136.4400  159.0910 C   0  0  1  0  0  3  0  0  0  0  0  0
  135.8600  136.9110  160.3270 C   0  0  0  0  0  1  0  0  0  0  0  0
  136.0400  135.0890  158.6180 C   0  0  0  0  0  2  0  0  0  0  0  0
  134.0300  134.5640  157.5020 C   0  0  0  0  0  1  0  0  0  0  0  0
  134.6120  135.1190  158.6740 O   0  0  0  0  0  0  0  0  0  0  0  0
  139.6720  138.6990  154.6300 C   0  0  0  0  0  2  0  0  0  0  0  0
  139.8760  138.2190  153.2160 C   0  0  0  0  0  0  0  0  0  0  0  0
  141.1340  137.8170  152.7600 C   0  0  0  0  0  3  0  0  0  0  0  0
  141.3010  137.3380  151.4540 C   0  0  0  0  0  3  0  0  0  0  0  0
  140.2130  137.2320  150.5770 C   0  0  0  0  0  0  0  0  0  0  0  0
  138.9400  137.6090  151.0350 C   0  0  0  0  0  0  0  0  0  0  0  0
  138.7900  138.1190  152.3370 C   0  0  0  0  0  3  0  0  0  0  0  0
  140.3260  136.7970  149.2830 O   0  0  0  0  0  0  0  0  0  0  0  0
  141.2700  137.4440  148.4390 C   0  0  0  0  0  1  0  0  0  0  0  0
  137.7620  137.5820  150.3300 O   0  0  0  0  0  0  0  0  0  0  0  0
  136.7930  136.6240  150.7360 C   0  0  0  0  0  1  0  0  0  0  0  0
  1  5  1  0  0  0  0
  2  1  2  0  0  0  0
  3  4  1  0  0  0  0
  3  1  1  0  0  0  0
  5  6  1  0  0  0  0
  6  7  1  0  0  0  0
  6  9  1  0  0  0  0
  8  6  1  0  0  0  0
  9 10  1  1  0  0  0
 11 13  1  0  0  0  0
 11  9  1  0  0  0  0
 12 13  1  0  0  0  0
 14  3  1  0  0  0  0
 15 14  1  0  0  0  0
 16 15  1  0  0  0  0
 17 16  2  0  0  0  0
 18 19  2  0  0  0  0
 18 17  1  0  0  0  0
 19 20  1  0  0  0  0
 20 15  2  0  0  0  0
 21 18  1  0  0  0  0
 22 21  1  0  0  0  0
 23 24  1  0  0  0  0
 23 19  1  0  0  0  0
M  END
>  <MODEL>
4

>  <REMARK>
 VINA RESULT:    -5.344      2.532      3.608
 INTER + INTRA:          -9.016
 INTER:                  -8.451
 INTRA:                  -0.565
 UNBOUND:                -0.860
  Name = CHEMBL4912400
  13 active torsions:
  status: ('A' for Active; 'I' for Inactive)
    1  A    between atoms: C_1  and  O_2
    2  A    between atoms: O_2  and  C_3
    3  A    between atoms: C_3  and  C_4
    4  A    between atoms: C_4  and  C_5
    5  A    between atoms: C_4  and  N_6
    6  A    between atoms: N_6  and  C_7
    7  A    between atoms: C_7  and  C_8
    8  A    between atoms: N_10  and  C_11
    9  A    between atoms: C_11  and  C_12
   10  A    between atoms: C_15  and  O_16
   11  A    between atoms: O_16  and  C_17
   12  A    between atoms: C_18  and  O_19
   13  A    between atoms: O_19  and  C_20
                            x       y       z     vdW  Elec       q    Type
                         _______ _______ _______ _____ _____    ______ ____

>  <TORSDO>
F 9

>  <SCORE>
-5.344

>  <RMSD_LB>
2.532

>  <RMSD_UB>
3.608

$$$$
CHEMBL4912400
 OpenBabel10172500163D

 24 24  0  0  1  0  0  0  0  0999 V2000
  133.9090  134.7290  151.7800 C   0  0  0  0  0  0  0  0  0  0  0  0
  134.8640  134.0050  151.5270 O   0  0  0  0  0  0  0  0  0  0  0  0
  132.6990  134.6620  151.1250 N   0  0  0  0  0  0  0  0  0  0  0  0
  131.9940  135.3120  151.3500 H   0  0  0  0  0  0  0  0  0  0  0  0
  133.9700  135.8160  152.8600 C   0  0  0  0  0  2  0  0  0  0  0  0
  133.7400  135.2730  154.2110 N   0  0  0  0  0  4  0  0  0  0  0  0
  132.8210  135.5830  154.5280 H   0  0  0  0  0  0  0  0  0  0  0  0
  133.8070  134.2580  154.1360 H   0  0  0  0  0  0  0  0  0  0  0  0
  134.7470  135.6980  155.2110 C   0  0  1  0  0  3  0  0  0  0  0  0
  134.7820  134.7680  156.4320 C   0  0  0  0  0  1  0  0  0  0  0  0
  136.1650  135.7440  154.5860 C   0  0  0  0  0  2  0  0  0  0  0  0
  136.9940  137.5950  155.7900 C   0  0  0  0  0  1  0  0  0  0  0  0
  136.6430  137.0890  154.5090 O   0  0  0  0  0  0  0  0  0  0  0  0
  132.4420  133.6620  150.1140 C   0  0  0  0  0  2  0  0  0  0  0  0
  132.9590  134.0600  148.7550 C   0  0  0  0  0  0  0  0  0  0  0  0
  132.8330  135.3700  148.2860 C   0  0  0  0  0  3  0  0  0  0  0  0
  133.3530  135.7330  147.0360 C   0  0  0  0  0  3  0  0  0  0  0  0
  134.0260  134.8030  146.2330 C   0  0  0  0  0  0  0  0  0  0  0  0
  134.1800  133.4910  146.7090 C   0  0  0  0  0  0  0  0  0  0  0  0
  133.6260  133.1280  147.9500 C   0  0  0  0  0  3  0  0  0  0  0  0
  134.5270  135.0990  144.9930 O   0  0  0  0  0  0  0  0  0  0  0  0
  135.8180  135.6890  144.9150 C   0  0  0  0  0  1  0  0  0  0  0  0
  134.8000  132.4440  146.0720 O   0  0  0  0  0  0  0  0  0  0  0  0
  136.1530  132.1880  146.4250 C   0  0  0  0  0  1  0  0  0  0  0  0
  1  5  1  0  0  0  0
  2  1  2  0  0  0  0
  3  4  1  0  0  0  0
  3  1  1  0  0  0  0
  5  6  1  0  0  0  0
  6  7  1  0  0  0  0
  6  9  1  0  0  0  0
  8  6  1  0  0  0  0
  9 10  1  1  0  0  0
 11  9  1  0  0  0  0
 13 11  1  0  0  0  0
 13 12  1  0  0  0  0
 14  3  1  0  0  0  0
 15 14  1  0  0  0  0
 16 15  1  0  0  0  0
 17 16  2  0  0  0  0
 18 19  2  0  0  0  0
 18 17  1  0  0  0  0
 19 20  1  0  0  0  0
 20 15  2  0  0  0  0
 21 18  1  0  0  0  0
 22 21  1  0  0  0  0
 23 24  1  0  0  0  0
 23 19  1  0  0  0  0
M  END
>  <MODEL>
5

>  <REMARK>
 VINA RESULT:    -5.300      3.473      6.185
 INTER + INTRA:          -8.949
 INTER:                  -8.366
 INTRA:                  -0.582
 UNBOUND:                -0.860
  Name = CHEMBL4912400
  13 active torsions:
  status: ('A' for Active; 'I' for Inactive)
    1  A    between atoms: C_1  and  O_2
    2  A    between atoms: O_2  and  C_3
    3  A    between atoms: C_3  and  C_4
    4  A    between atoms: C_4  and  C_5
    5  A    between atoms: C_4  and  N_6
    6  A    between atoms: N_6  and  C_7
    7  A    between atoms: C_7  and  C_8
    8  A    between atoms: N_10  and  C_11
    9  A    between atoms: C_11  and  C_12
   10  A    between atoms: C_15  and  O_16
   11  A    between atoms: O_16  and  C_17
   12  A    between atoms: C_18  and  O_19
   13  A    between atoms: O_19  and  C_20
                            x       y       z     vdW  Elec       q    Type
                         _______ _______ _______ _____ _____    ______ ____

>  <TORSDO>
F 9

>  <SCORE>
-5.300

>  <RMSD_LB>
3.473

>  <RMSD_UB>
6.185

$$$$
CHEMBL4912400
 OpenBabel10172500163D

 24 24  0  0  1  0  0  0  0  0999 V2000
  141.8130  139.3340  150.0450 C   0  0  0  0  0  0  0  0  0  0  0  0
  141.2810  140.2260  149.3960 O   0  0  0  0  0  0  0  0  0  0  0  0
  143.1530  139.3080  150.3600 N   0  0  0  0  0  0  0  0  0  0  0  0
  143.5180  138.5310  150.8430 H   0  0  0  0  0  0  0  0  0  0  0  0
  141.0290  138.1240  150.5670 C   0  0  0  0  0  2  0  0  0  0  0  0
  141.7610  137.4000  151.6230 N   0  0  0  0  0  4  0  0  0  0  0  0
  141.6740  136.3990  151.4440 H   0  0  0  0  0  0  0  0  0  0  0  0
  142.7270  137.7230  151.5860 H   0  0  0  0  0  0  0  0  0  0  0  0
  141.2680  137.6730  152.9940 C   0  0  1  0  0  3  0  0  0  0  0  0
  142.1380  138.7030  153.7290 C   0  0  0  0  0  1  0  0  0  0  0  0
  139.8070  138.1930  152.9650 C   0  0  0  0  0  2  0  0  0  0  0  0
  138.2230  138.5540  154.6740 C   0  0  0  0  0  1  0  0  0  0  0  0
  139.5000  138.9100  154.1630 O   0  0  0  0  0  0  0  0  0  0  0  0
  144.0360  140.3930  149.9980 C   0  0  0  0  0  2  0  0  0  0  0  0
  144.9610  140.7900  151.1200 C   0  0  0  0  0  0  0  0  0  0  0  0
  145.3290  142.1230  151.3200 C   0  0  0  0  0  3  0  0  0  0  0  0
  146.1590  142.4810  152.3910 C   0  0  0  0  0  3  0  0  0  0  0  0
  146.6280  141.5210  153.2970 C   0  0  0  0  0  0  0  0  0  0  0  0
  146.2430  140.1820  153.1180 C   0  0  0  0  0  0  0  0  0  0  0  0
  145.4360  139.8280  152.0220 C   0  0  0  0  0  3  0  0  0  0  0  0
  147.4640  141.8130  154.3420 O   0  0  0  0  0  0  0  0  0  0  0  0
  148.8630  141.8510  154.0910 C   0  0  0  0  0  1  0  0  0  0  0  0
  146.5990  139.1050  153.8920 O   0  0  0  0  0  0  0  0  0  0  0  0
  145.8110  138.8560  155.0490 C   0  0  0  0  0  1  0  0  0  0  0  0
  1  3  1  0  0  0  0
  1  5  1  0  0  0  0
  2  1  2  0  0  0  0
  3  4  1  0  0  0  0
  5  6  1  0  0  0  0
  6  9  1  0  0  0  0
  7  6  1  0  0  0  0
  8  6  1  0  0  0  0
  9 10  1  6  0  0  0
 11  9  1  0  0  0  0
 11 13  1  0  0  0  0
 13 12  1  0  0  0  0
 14  3  1  0  0  0  0
 14 15  1  0  0  0  0
 15 16  2  0  0  0  0
 15 20  1  0  0  0  0
 16 17  1  0  0  0  0
 17 18  2  0  0  0  0
 18 21  1  0  0  0  0
 19 18  1  0  0  0  0
 19 23  1  0  0  0  0
 20 19  2  0  0  0  0
 22 21  1  0  0  0  0
 23 24  1  0  0  0  0
M  END
>  <MODEL>
6

>  <REMARK>
 VINA RESULT:    -5.238      7.183     10.173
 INTER + INTRA:          -8.853
 INTER:                  -7.993
 INTRA:                  -0.860
 UNBOUND:                -0.860
  Name = CHEMBL4912400
  13 active torsions:
  status: ('A' for Active; 'I' for Inactive)
    1  A    between atoms: C_1  and  O_2
    2  A    between atoms: O_2  and  C_3
    3  A    between atoms: C_3  and  C_4
    4  A    between atoms: C_4  and  C_5
    5  A    between atoms: C_4  and  N_6
    6  A    between atoms: N_6  and  C_7
    7  A    between atoms: C_7  and  C_8
    8  A    between atoms: N_10  and  C_11
    9  A    between atoms: C_11  and  C_12
   10  A    between atoms: C_15  and  O_16
   11  A    between atoms: O_16  and  C_17
   12  A    between atoms: C_18  and  O_19
   13  A    between atoms: O_19  and  C_20
                            x       y       z     vdW  Elec       q    Type
                         _______ _______ _______ _____ _____    ______ ____

>  <TORSDO>
F 9

>  <SCORE>
-5.238

>  <RMSD_LB>
7.183

>  <RMSD_UB>
10.173

$$$$
CHEMBL4912400
 OpenBabel10172500163D

 24 24  0  0  1  0  0  0  0  0999 V2000
  146.0230  140.6380  153.8150 C   0  0  0  0  0  0  0  0  0  0  0  0
  146.6720  139.6250  153.5860 O   0  0  0  0  0  0  0  0  0  0  0  0
  144.8090  140.6430  154.4650 N   0  0  0  0  0  0  0  0  0  0  0  0
  144.3220  141.4920  154.5670 H   0  0  0  0  0  0  0  0  0  0  0  0
  146.4970  142.0300  153.3760 C   0  0  0  0  0  2  0  0  0  0  0  0
  145.7240  142.5460  152.2310 N   0  0  0  0  0  4  0  0  0  0  0  0
  144.8680  141.9970  152.1500 H   0  0  0  0  0  0  0  0  0  0  0  0
  145.5420  143.5310  152.4190 H   0  0  0  0  0  0  0  0  0  0  0  0
  146.4450  142.4800  150.9380 C   0  0  1  0  0  3  0  0  0  0  0  0
  147.9430  142.2010  151.1230 C   0  0  0  0  0  1  0  0  0  0  0  0
  145.8470  141.3800  150.0240 C   0  0  0  0  0  2  0  0  0  0  0  0
  145.9130  139.0250  150.1310 C   0  0  0  0  0  1  0  0  0  0  0  0
  146.6790  140.2170  150.0190 O   0  0  0  0  0  0  0  0  0  0  0  0
  144.2330  139.4290  154.9980 C   0  0  0  0  0  2  0  0  0  0  0  0
  143.1160  138.8890  154.1410 C   0  0  0  0  0  0  0  0  0  0  0  0
  143.3210  138.5740  152.7960 C   0  0  0  0  0  3  0  0  0  0  0  0
  142.2830  138.0380  152.0220 C   0  0  0  0  0  3  0  0  0  0  0  0
  141.0210  137.7870  152.5770 C   0  0  0  0  0  0  0  0  0  0  0  0
  140.8130  138.0780  153.9360 C   0  0  0  0  0  0  0  0  0  0  0  0
  141.8520  138.6460  154.6940 C   0  0  0  0  0  3  0  0  0  0  0  0
  139.9640  137.2920  151.8590 O   0  0  0  0  0  0  0  0  0  0  0  0
  139.4030  138.1110  150.8420 C   0  0  0  0  0  1  0  0  0  0  0  0
  139.6550  137.9080  154.6540 O   0  0  0  0  0  0  0  0  0  0  0  0
  138.6390  138.8860  154.4740 C   0  0  0  0  0  1  0  0  0  0  0  0
  1  3  1  0  0  0  0
  2  1  2  0  0  0  0
  3  4  1  0  0  0  0
  3 14  1  0  0  0  0
  5  1  1  0  0  0  0
  6  8  1  0  0  0  0
  6  5  1  0  0  0  0
  7  6  1  0  0  0  0
  9 10  1  1  0  0  0
  9  6  1  0  0  0  0
 11  9  1  0  0  0  0
 13 11  1  0  0  0  0
 13 12  1  0  0  0  0
 15 20  1  0  0  0  0
 15 14  1  0  0  0  0
 16 15  2  0  0  0  0
 17 18  2  0  0  0  0
 17 16  1  0  0  0  0
 18 19  1  0  0  0  0
 19 23  1  0  0  0  0
 19 20  2  0  0  0  0
 21 18  1  0  0  0  0
 22 21  1  0  0  0  0
 24 23  1  0  0  0  0
M  END
>  <MODEL>
7

>  <REMARK>
 VINA RESULT:    -5.235      7.113      9.754
 INTER + INTRA:          -8.850
 INTER:                  -8.002
 INTRA:                  -0.848
 UNBOUND:                -0.860
  Name = CHEMBL4912400
  13 active torsions:
  status: ('A' for Active; 'I' for Inactive)
    1  A    between atoms: C_1  and  O_2
    2  A    between atoms: O_2  and  C_3
    3  A    between atoms: C_3  and  C_4
    4  A    between atoms: C_4  and  C_5
    5  A    between atoms: C_4  and  N_6
    6  A    between atoms: N_6  and  C_7
    7  A    between atoms: C_7  and  C_8
    8  A    between atoms: N_10  and  C_11
    9  A    between atoms: C_11  and  C_12
   10  A    between atoms: C_15  and  O_16
   11  A    between atoms: O_16  and  C_17
   12  A    between atoms: C_18  and  O_19
   13  A    between atoms: O_19  and  C_20
                            x       y       z     vdW  Elec       q    Type
                         _______ _______ _______ _____ _____    ______ ____

>  <TORSDO>
F 9

>  <SCORE>
-5.235

>  <RMSD_LB>
7.113

>  <RMSD_UB>
9.754

$$$$
CHEMBL4912400
 OpenBabel10172500163D

 24 24  0  0  1  0  0  0  0  0999 V2000
  147.2970  142.1090  151.1150 C   0  0  0  0  0  0  0  0  0  0  0  0
  147.2130  142.7010  150.0460 O   0  0  0  0  0  0  0  0  0  0  0  0
  146.2180  141.5810  151.7870 N   0  0  0  0  0  0  0  0  0  0  0  0
  146.3580  141.1620  152.6680 H   0  0  0  0  0  0  0  0  0  0  0  0
  148.6360  141.9080  151.8360 C   0  0  0  0  0  2  0  0  0  0  0  0
  148.7530  140.5620  152.4270 N   0  0  0  0  0  4  0  0  0  0  0  0
  147.9180  140.0310  152.1820 H   0  0  0  0  0  0  0  0  0  0  0  0
  149.6060  140.1480  152.0520 H   0  0  0  0  0  0  0  0  0  0  0  0
  148.8890  140.5630  153.9030 C   0  0  1  0  0  3  0  0  0  0  0  0
  148.6180  141.9450  154.5120 C   0  0  0  0  0  1  0  0  0  0  0  0
  147.9190  139.5400  154.5500 C   0  0  0  0  0  2  0  0  0  0  0  0
  145.6040  139.1840  154.8220 C   0  0  0  0  0  1  0  0  0  0  0  0
  146.6320  139.6010  153.9330 O   0  0  0  0  0  0  0  0  0  0  0  0
  144.8840  141.6280  151.2320 C   0  0  0  0  0  2  0  0  0  0  0  0
  144.3480  140.2620  150.8880 C   0  0  0  0  0  0  0  0  0  0  0  0
  144.6130  139.6670  149.6530 C   0  0  0  0  0  3  0  0  0  0  0  0
  144.1390  138.3810  149.3630 C   0  0  0  0  0  3  0  0  0  0  0  0
  143.4040  137.6500  150.3060 C   0  0  0  0  0  0  0  0  0  0  0  0
  143.1550  138.2300  151.5610 C   0  0  0  0  0  0  0  0  0  0  0  0
  143.6070  139.5340  151.8290 C   0  0  0  0  0  3  0  0  0  0  0  0
  142.8930  136.4020  150.0630 O   0  0  0  0  0  0  0  0  0  0  0  0
  143.7230  135.4550  149.4050 C   0  0  0  0  0  1  0  0  0  0  0  0
  142.4560  137.6780  152.6070 O   0  0  0  0  0  0  0  0  0  0  0  0
  141.0580  137.9330  152.6500 C   0  0  0  0  0  1  0  0  0  0  0  0
  1  3  1  0  0  0  0
  1  5  1  0  0  0  0
  2  1  2  0  0  0  0
  3  4  1  0  0  0  0
  5  6  1  0  0  0  0
  6  9  1  0  0  0  0
  7  6  1  0  0  0  0
  8  6  1  0  0  0  0
  9 10  1  1  0  0  0
  9 11  1  0  0  0  0
 13 11  1  0  0  0  0
 13 12  1  0  0  0  0
 14  3  1  0  0  0  0
 15 14  1  0  0  0  0
 15 20  1  0  0  0  0
 16 15  2  0  0  0  0
 17 16  1  0  0  0  0
 17 18  2  0  0  0  0
 18 19  1  0  0  0  0
 19 20  2  0  0  0  0
 19 23  1  0  0  0  0
 21 18  1  0  0  0  0
 22 21  1  0  0  0  0
 23 24  1  0  0  0  0
M  END
>  <MODEL>
8

>  <REMARK>
 VINA RESULT:    -5.132      8.639     10.585
 INTER + INTRA:          -8.692
 INTER:                  -7.550
 INTRA:                  -1.142
 UNBOUND:                -0.860
  Name = CHEMBL4912400
  13 active torsions:
  status: ('A' for Active; 'I' for Inactive)
    1  A    between atoms: C_1  and  O_2
    2  A    between atoms: O_2  and  C_3
    3  A    between atoms: C_3  and  C_4
    4  A    between atoms: C_4  and  C_5
    5  A    between atoms: C_4  and  N_6
    6  A    between atoms: N_6  and  C_7
    7  A    between atoms: C_7  and  C_8
    8  A    between atoms: N_10  and  C_11
    9  A    between atoms: C_11  and  C_12
   10  A    between atoms: C_15  and  O_16
   11  A    between atoms: O_16  and  C_17
   12  A    between atoms: C_18  and  O_19
   13  A    between atoms: O_19  and  C_20
                            x       y       z     vdW  Elec       q    Type
                         _______ _______ _______ _____ _____    ______ ____

>  <TORSDO>
F 9

>  <SCORE>
-5.132

>  <RMSD_LB>
8.639

>  <RMSD_UB>
10.585

$$$$
CHEMBL4912400
 OpenBabel10172500163D

 24 24  0  0  1  0  0  0  0  0999 V2000
  135.4270  136.1700  151.6110 C   0  0  0  0  0  0  0  0  0  0  0  0
  134.2080  136.1870  151.7240 O   0  0  0  0  0  0  0  0  0  0  0  0
  136.2870  135.7850  152.6140 N   0  0  0  0  0  0  0  0  0  0  0  0
  137.2590  135.8460  152.4650 H   0  0  0  0  0  0  0  0  0  0  0  0
  136.1340  136.6030  150.3200 C   0  0  0  0  0  2  0  0  0  0  0  0
  137.6000  136.6470  150.4760 N   0  0  0  0  0  4  0  0  0  0  0  0
  137.8110  136.9470  151.4280 H   0  0  0  0  0  0  0  0  0  0  0  0
  137.9460  135.7090  150.2740 H   0  0  0  0  0  0  0  0  0  0  0  0
  138.2790  137.5680  149.5340 C   0  0  1  0  0  3  0  0  0  0  0  0
  137.4300  138.8070  149.2200 C   0  0  0  0  0  1  0  0  0  0  0  0
  139.6440  138.0350  150.1010 C   0  0  0  0  0  2  0  0  0  0  0  0
  141.3770  137.4750  151.6000 C   0  0  0  0  0  1  0  0  0  0  0  0
  140.2600  136.9950  150.8640 O   0  0  0  0  0  0  0  0  0  0  0  0
  135.7970  135.2940  153.8820 C   0  0  0  0  0  2  0  0  0  0  0  0
  136.3620  136.0510  155.0570 C   0  0  0  0  0  0  0  0  0  0  0  0
  136.0970  135.6570  156.3710 C   0  0  0  0  0  3  0  0  0  0  0  0
  136.6600  136.3480  157.4510 C   0  0  0  0  0  3  0  0  0  0  0  0
  137.5160  137.4380  157.2470 C   0  0  0  0  0  0  0  0  0  0  0  0
  137.8090  137.8260  155.9290 C   0  0  0  0  0  0  0  0  0  0  0  0
  137.2120  137.1460  154.8520 C   0  0  0  0  0  3  0  0  0  0  0  0
  138.0700  138.1660  158.2670 O   0  0  0  0  0  0  0  0  0  0  0  0
  137.5150  138.0250  159.5680 C   0  0  0  0  0  1  0  0  0  0  0  0
  138.6150  138.8630  155.5280 O   0  0  0  0  0  0  0  0  0  0  0  0
  138.9940  138.8890  154.1580 C   0  0  0  0  0  1  0  0  0  0  0  0
  1  2  2  0  0  0  0
  1  3  1  0  0  0  0
  3 14  1  0  0  0  0
  4  3  1  0  0  0  0
  5  6  1  0  0  0  0
  5  1  1  0  0  0  0
  6  7  1  0  0  0  0
  8  6  1  0  0  0  0
  9 10  1  1  0  0  0
  9 11  1  0  0  0  0
  9  6  1  0  0  0  0
 11 13  1  0  0  0  0
 13 12  1  0  0  0  0
 14 15  1  0  0  0  0
 15 16  1  0  0  0  0
 16 17  2  0  0  0  0
 18 17  1  0  0  0  0
 18 21  1  0  0  0  0
 19 18  2  0  0  0  0
 20 15  2  0  0  0  0
 20 19  1  0  0  0  0
 21 22  1  0  0  0  0
 23 19  1  0  0  0  0
 24 23  1  0  0  0  0
M  END
>  <MODEL>
9

>  <REMARK>
 VINA RESULT:    -5.066      2.592      7.498
 INTER + INTRA:          -8.591
 INTER:                  -7.889
 INTRA:                  -0.703
 UNBOUND:                -0.860
  Name = CHEMBL4912400
  13 active torsions:
  status: ('A' for Active; 'I' for Inactive)
    1  A    between atoms: C_1  and  O_2
    2  A    between atoms: O_2  and  C_3
    3  A    between atoms: C_3  and  C_4
    4  A    between atoms: C_4  and  C_5
    5  A    between atoms: C_4  and  N_6
    6  A    between atoms: N_6  and  C_7
    7  A    between atoms: C_7  and  C_8
    8  A    between atoms: N_10  and  C_11
    9  A    between atoms: C_11  and  C_12
   10  A    between atoms: C_15  and  O_16
   11  A    between atoms: O_16  and  C_17
   12  A    between atoms: C_18  and  O_19
   13  A    between atoms: O_19  and  C_20
                            x       y       z     vdW  Elec       q    Type
                         _______ _______ _______ _____ _____    ______ ____

>  <TORSDO>
F 9

>  <SCORE>
-5.066

>  <RMSD_LB>
2.592

>  <RMSD_UB>
7.498

$$$$
