CHEMBL4545194
 OpenBabel10172500403D

 24 25  0  0  0  0  0  0  0  0999 V2000
  146.3400  138.4900  152.4800 C   0  0  0  0  0  2  0  0  0  0  0  0
  146.6550  137.4640  153.5520 C   0  0  0  0  0  0  0  0  0  0  0  0
  146.2490  136.3040  153.4770 O   0  0  0  0  0  0  0  0  0  0  0  0
  147.4930  137.9460  154.7220 C   0  0  0  0  0  2  0  0  0  0  0  0
  147.3440  139.4490  154.9470 C   0  0  0  0  0  2  0  0  0  0  0  0
  148.5210  140.2210  154.3500 C   0  0  0  0  0  2  0  0  0  0  0  0
  148.1780  141.7020  154.1880 C   0  0  0  0  0  2  0  0  0  0  0  0
  147.5280  141.9930  152.8600 C   0  0  0  0  0  0  0  0  0  0  0  0
  146.1490  142.2280  152.7780 C   0  0  0  0  0  3  0  0  0  0  0  0
  145.5520  142.5180  151.5500 C   0  0  0  0  0  3  0  0  0  0  0  0
  146.3260  142.5670  150.3920 C   0  0  0  0  0  3  0  0  0  0  0  0
  147.6950  142.3140  150.4590 C   0  0  0  0  0  3  0  0  0  0  0  0
  148.2930  142.0240  151.6860 C   0  0  0  0  0  3  0  0  0  0  0  0
  146.9310  138.0780  151.1350 C   0  0  0  0  0  2  0  0  0  0  0  0
  144.2730  139.8110  149.0050 C   0  0  0  0  0  0  0  0  0  0  0  0
  144.9080  139.1680  150.0750 C   0  0  0  0  0  3  0  0  0  0  0  0
  146.2560  138.7800  149.9830 C   0  0  0  0  0  0  0  0  0  0  0  0
  146.9740  139.0600  148.8140 C   0  0  0  0  0  3  0  0  0  0  0  0
  146.3520  139.6990  147.7410 C   0  0  0  0  0  3  0  0  0  0  0  0
  145.0100  140.0660  147.8410 C   0  0  0  0  0  0  0  0  0  0  0  0
  141.9650  139.2150  149.0870 C   0  0  0  0  0  1  0  0  0  0  0  0
  142.9670  140.2190  148.9960 O   0  0  0  0  0  0  0  0  0  0  0  0
  144.3980  140.6850  146.7830 O   0  0  0  0  0  0  0  0  0  0  0  0
  144.7600  141.4760  146.4310 H   0  0  0  0  0  0  0  0  0  0  0  0
  1  2  1  0  0  0  0
  2  4  1  0  0  0  0
  3  2  2  0  0  0  0
  4  5  1  0  0  0  0
  6  5  1  0  0  0  0
  7  6  1  0  0  0  0
  8  7  1  0  0  0  0
  9  8  1  0  0  0  0
 10  9  2  0  0  0  0
 11 12  2  0  0  0  0
 11 10  1  0  0  0  0
 12 13  1  0  0  0  0
 13  8  2  0  0  0  0
 14  1  1  0  0  0  0
 15 16  1  0  0  0  0
 17 16  2  0  0  0  0
 17 14  1  0  0  0  0
 18 17  1  0  0  0  0
 19 20  1  0  0  0  0
 19 18  2  0  0  0  0
 20 15  2  0  0  0  0
 22 15  1  0  0  0  0
 22 21  1  0  0  0  0
 23 20  1  0  0  0  0
 24 23  1  0  0  0  0
M  END
>  <MODEL>
1

>  <REMARK>
 VINA RESULT:    -7.166      0.000      0.000
 INTER + INTRA:         -12.993
 INTER:                 -10.453
 INTRA:                  -2.540
 UNBOUND:                -1.848
  Name = CHEMBL4545194
  11 active torsions:
  status: ('A' for Active; 'I' for Inactive)
    1  A    between atoms: C_1  and  O_2
    2  A    between atoms: O_2  and  C_3
    3  A    between atoms: C_5  and  C_6
    4  A    between atoms: C_6  and  C_7
    5  A    between atoms: C_7  and  C_8
    6  A    between atoms: C_8  and  C_10
    7  A    between atoms: C_10  and  C_11
    8  A    between atoms: C_11  and  C_12
    9  A    between atoms: C_12  and  C_13
   10  A    between atoms: C_13  and  C_14
   11  A    between atoms: C_22  and  O_23
                            x       y       z     vdW  Elec       q    Type
                         _______ _______ _______ _____ _____    ______ ____

>  <TORSDO>
F 10

>  <SCORE>
-7.166

>  <RMSD_LB>
0.000

>  <RMSD_UB>
0.000

$$$$
CHEMBL4545194
 OpenBabel10172500403D

 24 25  0  0  0  0  0  0  0  0999 V2000
  146.3590  137.1770  150.2830 C   0  0  0  0  0  2  0  0  0  0  0  0
  146.6970  137.8800  148.9830 C   0  0  0  0  0  0  0  0  0  0  0  0
  147.5530  137.4440  148.2130 O   0  0  0  0  0  0  0  0  0  0  0  0
  145.9260  139.1530  148.6840 C   0  0  0  0  0  2  0  0  0  0  0  0
  145.9870  140.1410  149.8460 C   0  0  0  0  0  2  0  0  0  0  0  0
  146.3680  141.5430  149.3670 C   0  0  0  0  0  2  0  0  0  0  0  0
  146.1360  142.5790  150.4670 C   0  0  0  0  0  2  0  0  0  0  0  0
  146.9110  142.2620  151.7200 C   0  0  0  0  0  0  0  0  0  0  0  0
  146.2800  142.2800  152.9710 C   0  0  0  0  0  3  0  0  0  0  0  0
  146.9950  141.9650  154.1280 C   0  0  0  0  0  3  0  0  0  0  0  0
  148.3470  141.6370  154.0460 C   0  0  0  0  0  3  0  0  0  0  0  0
  148.9880  141.6360  152.8090 C   0  0  0  0  0  3  0  0  0  0  0  0
  148.2750  141.9510  151.6510 C   0  0  0  0  0  3  0  0  0  0  0  0
  147.5760  137.1030  151.2000 C   0  0  0  0  0  2  0  0  0  0  0  0
  145.7080  138.5800  154.1890 C   0  0  0  0  0  0  0  0  0  0  0  0
  146.0040  138.1320  152.8960 C   0  0  0  0  0  3  0  0  0  0  0  0
  147.2590  137.5750  152.5980 C   0  0  0  0  0  0  0  0  0  0  0  0
  148.2140  137.4500  153.6140 C   0  0  0  0  0  3  0  0  0  0  0  0
  147.9310  137.8940  154.9060 C   0  0  0  0  0  3  0  0  0  0  0  0
  146.6870  138.4570  155.1840 C   0  0  0  0  0  0  0  0  0  0  0  0
  143.3290  138.6040  154.0190 C   0  0  0  0  0  1  0  0  0  0  0  0
  144.5200  139.1420  154.5740 O   0  0  0  0  0  0  0  0  0  0  0  0
  146.4140  138.9010  156.4510 O   0  0  0  0  0  0  0  0  0  0  0  0
  146.4030  138.2960  157.1670 H   0  0  0  0  0  0  0  0  0  0  0  0
  1 14  1  0  0  0  0
  2  1  1  0  0  0  0
  3  2  2  0  0  0  0
  4  2  1  0  0  0  0
  4  5  1  0  0  0  0
  6  5  1  0  0  0  0
  6  7  1  0  0  0  0
  7  8  1  0  0  0  0
  8  9  1  0  0  0  0
  9 10  2  0  0  0  0
 11 10  1  0  0  0  0
 12 11  2  0  0  0  0
 13  8  2  0  0  0  0
 13 12  1  0  0  0  0
 14 17  1  0  0  0  0
 15 22  1  0  0  0  0
 15 20  1  0  0  0  0
 16 15  2  0  0  0  0
 17 16  1  0  0  0  0
 17 18  2  0  0  0  0
 18 19  1  0  0  0  0
 19 20  2  0  0  0  0
 20 23  1  0  0  0  0
 21 22  1  0  0  0  0
 23 24  1  0  0  0  0
M  END
>  <MODEL>
2

>  <REMARK>
 VINA RESULT:    -7.100      2.130      4.981
 INTER + INTRA:         -12.890
 INTER:                 -10.799
 INTRA:                  -2.091
 UNBOUND:                -1.848
  Name = CHEMBL4545194
  11 active torsions:
  status: ('A' for Active; 'I' for Inactive)
    1  A    between atoms: C_1  and  O_2
    2  A    between atoms: O_2  and  C_3
    3  A    between atoms: C_5  and  C_6
    4  A    between atoms: C_6  and  C_7
    5  A    between atoms: C_7  and  C_8
    6  A    between atoms: C_8  and  C_10
    7  A    between atoms: C_10  and  C_11
    8  A    between atoms: C_11  and  C_12
    9  A    between atoms: C_12  and  C_13
   10  A    between atoms: C_13  and  C_14
   11  A    between atoms: C_22  and  O_23
                            x       y       z     vdW  Elec       q    Type
                         _______ _______ _______ _____ _____    ______ ____

>  <TORSDO>
F 10

>  <SCORE>
-7.100

>  <RMSD_LB>
2.130

>  <RMSD_UB>
4.981

$$$$
CHEMBL4545194
 OpenBabel10172500403D

 24 25  0  0  0  0  0  0  0  0999 V2000
  142.7310  137.6820  152.6590 C   0  0  0  0  0  2  0  0  0  0  0  0
  143.6240  138.8950  152.4820 C   0  0  0  0  0  0  0  0  0  0  0  0
  143.9640  139.5950  153.4360 O   0  0  0  0  0  0  0  0  0  0  0  0
  144.0720  139.2000  151.0650 C   0  0  0  0  0  2  0  0  0  0  0  0
  144.0260  140.6960  150.7640 C   0  0  0  0  0  2  0  0  0  0  0  0
  145.3380  141.1820  150.1450 C   0  0  0  0  0  2  0  0  0  0  0  0
  145.8030  142.4820  150.8000 C   0  0  0  0  0  2  0  0  0  0  0  0
  146.8510  142.2440  151.8560 C   0  0  0  0  0  0  0  0  0  0  0  0
  146.4920  142.1450  153.2070 C   0  0  0  0  0  3  0  0  0  0  0  0
  147.4620  141.9040  154.1810 C   0  0  0  0  0  3  0  0  0  0  0  0
  148.7990  141.7670  153.8160 C   0  0  0  0  0  3  0  0  0  0  0  0
  149.1700  141.8840  152.4780 C   0  0  0  0  0  3  0  0  0  0  0  0
  148.2020  142.1260  151.5020 C   0  0  0  0  0  3  0  0  0  0  0  0
  141.4500  137.8190  151.8420 C   0  0  0  0  0  2  0  0  0  0  0  0
  137.8290  137.5010  153.0200 C   0  0  0  0  0  0  0  0  0  0  0  0
  138.9740  137.4560  152.2150 C   0  0  0  0  0  3  0  0  0  0  0  0
  140.2220  137.8590  152.7180 C   0  0  0  0  0  0  0  0  0  0  0  0
  140.3210  138.2910  154.0460 C   0  0  0  0  0  3  0  0  0  0  0  0
  139.1880  138.3400  154.8570 C   0  0  0  0  0  3  0  0  0  0  0  0
  137.9530  137.9500  154.3410 C   0  0  0  0  0  0  0  0  0  0  0  0
  136.4650  136.2200  151.5400 C   0  0  0  0  0  1  0  0  0  0  0  0
  136.5710  137.1370  152.6200 O   0  0  0  0  0  0  0  0  0  0  0  0
  136.8390  138.0090  155.1370 O   0  0  0  0  0  0  0  0  0  0  0  0
  136.7930  137.4890  155.9160 H   0  0  0  0  0  0  0  0  0  0  0  0
  2  1  1  0  0  0  0
  2  3  2  0  0  0  0
  4  2  1  0  0  0  0
  5  4  1  0  0  0  0
  6  5  1  0  0  0  0
  6  7  1  0  0  0  0
  7  8  1  0  0  0  0
  8  9  1  0  0  0  0
  9 10  2  0  0  0  0
 11 10  1  0  0  0  0
 12 11  2  0  0  0  0
 13  8  2  0  0  0  0
 13 12  1  0  0  0  0
 14  1  1  0  0  0  0
 14 17  1  0  0  0  0
 15 20  1  0  0  0  0
 16 17  1  0  0  0  0
 16 15  2  0  0  0  0
 17 18  2  0  0  0  0
 18 19  1  0  0  0  0
 20 19  2  0  0  0  0
 20 23  1  0  0  0  0
 21 22  1  0  0  0  0
 22 15  1  0  0  0  0
 23 24  1  0  0  0  0
M  END
>  <MODEL>
3

>  <REMARK>
 VINA RESULT:    -6.823      4.371      6.184
 INTER + INTRA:         -12.460
 INTER:                 -11.502
 INTRA:                  -0.958
 UNBOUND:                -1.848
  Name = CHEMBL4545194
  11 active torsions:
  status: ('A' for Active; 'I' for Inactive)
    1  A    between atoms: C_1  and  O_2
    2  A    between atoms: O_2  and  C_3
    3  A    between atoms: C_5  and  C_6
    4  A    between atoms: C_6  and  C_7
    5  A    between atoms: C_7  and  C_8
    6  A    between atoms: C_8  and  C_10
    7  A    between atoms: C_10  and  C_11
    8  A    between atoms: C_11  and  C_12
    9  A    between atoms: C_12  and  C_13
   10  A    between atoms: C_13  and  C_14
   11  A    between atoms: C_22  and  O_23
                            x       y       z     vdW  Elec       q    Type
                         _______ _______ _______ _____ _____    ______ ____

>  <TORSDO>
F 10

>  <SCORE>
-6.823

>  <RMSD_LB>
4.371

>  <RMSD_UB>
6.184

$$$$
CHEMBL4545194
 OpenBabel10172500403D

 24 25  0  0  0  0  0  0  0  0999 V2000
  144.3580  138.7240  152.0660 C   0  0  0  0  0  2  0  0  0  0  0  0
  145.7380  138.7980  151.4430 C   0  0  0  0  0  0  0  0  0  0  0  0
  146.7610  138.7810  152.1290 O   0  0  0  0  0  0  0  0  0  0  0  0
  145.7910  138.8980  149.9300 C   0  0  0  0  0  2  0  0  0  0  0  0
  146.7700  139.9740  149.4650 C   0  0  0  0  0  2  0  0  0  0  0  0
  146.0550  141.2990  149.1960 C   0  0  0  0  0  2  0  0  0  0  0  0
  146.8190  142.4690  149.8160 C   0  0  0  0  0  2  0  0  0  0  0  0
  147.1120  142.2460  151.2770 C   0  0  0  0  0  0  0  0  0  0  0  0
  148.4140  141.9570  151.7070 C   0  0  0  0  0  3  0  0  0  0  0  0
  148.6860  141.7720  153.0630 C   0  0  0  0  0  3  0  0  0  0  0  0
  147.6600  141.8650  154.0010 C   0  0  0  0  0  3  0  0  0  0  0  0
  146.3580  142.1330  153.5830 C   0  0  0  0  0  3  0  0  0  0  0  0
  146.0840  142.3180  152.2270 C   0  0  0  0  0  3  0  0  0  0  0  0
  143.4050  139.7190  151.4090 C   0  0  0  0  0  2  0  0  0  0  0  0
  139.6520  139.4430  150.7490 C   0  0  0  0  0  0  0  0  0  0  0  0
  140.9870  139.8580  150.6770 C   0  0  0  0  0  3  0  0  0  0  0  0
  141.9700  139.2600  151.4840 C   0  0  0  0  0  0  0  0  0  0  0  0
  141.6080  138.2240  152.3530 C   0  0  0  0  0  3  0  0  0  0  0  0
  140.2810  137.8030  152.4350 C   0  0  0  0  0  3  0  0  0  0  0  0
  139.3140  138.4140  151.6380 C   0  0  0  0  0  0  0  0  0  0  0  0
  138.4040  139.4270  148.7160 C   0  0  0  0  0  1  0  0  0  0  0  0
  138.6240  139.9670  150.0110 O   0  0  0  0  0  0  0  0  0  0  0  0
  138.0090  138.0060  151.7260 O   0  0  0  0  0  0  0  0  0  0  0  0
  137.4970  138.2330  152.4780 H   0  0  0  0  0  0  0  0  0  0  0  0
  2  1  1  0  0  0  0
  2  3  2  0  0  0  0
  4  2  1  0  0  0  0
  5  4  1  0  0  0  0
  6  5  1  0  0  0  0
  6  7  1  0  0  0  0
  7  8  1  0  0  0  0
  8  9  2  0  0  0  0
  8 13  1  0  0  0  0
  9 10  1  0  0  0  0
 10 11  2  0  0  0  0
 12 11  1  0  0  0  0
 13 12  2  0  0  0  0
 14 17  1  0  0  0  0
 14  1  1  0  0  0  0
 15 20  1  0  0  0  0
 16 15  2  0  0  0  0
 16 17  1  0  0  0  0
 17 18  2  0  0  0  0
 18 19  1  0  0  0  0
 20 23  1  0  0  0  0
 20 19  2  0  0  0  0
 21 22  1  0  0  0  0
 22 15  1  0  0  0  0
 23 24  1  0  0  0  0
M  END
>  <MODEL>
4

>  <REMARK>
 VINA RESULT:    -6.738      2.611      4.765
 INTER + INTRA:         -12.327
 INTER:                 -10.615
 INTRA:                  -1.712
 UNBOUND:                -1.848
  Name = CHEMBL4545194
  11 active torsions:
  status: ('A' for Active; 'I' for Inactive)
    1  A    between atoms: C_1  and  O_2
    2  A    between atoms: O_2  and  C_3
    3  A    between atoms: C_5  and  C_6
    4  A    between atoms: C_6  and  C_7
    5  A    between atoms: C_7  and  C_8
    6  A    between atoms: C_8  and  C_10
    7  A    between atoms: C_10  and  C_11
    8  A    between atoms: C_11  and  C_12
    9  A    between atoms: C_12  and  C_13
   10  A    between atoms: C_13  and  C_14
   11  A    between atoms: C_22  and  O_23
                            x       y       z     vdW  Elec       q    Type
                         _______ _______ _______ _____ _____    ______ ____

>  <TORSDO>
F 10

>  <SCORE>
-6.738

>  <RMSD_LB>
2.611

>  <RMSD_UB>
4.765

$$$$
CHEMBL4545194
 OpenBabel10172500403D

 24 25  0  0  0  0  0  0  0  0999 V2000
  143.4980  136.7060  150.5120 C   0  0  0  0  0  2  0  0  0  0  0  0
  144.3550  137.6990  149.7510 C   0  0  0  0  0  0  0  0  0  0  0  0
  145.3010  137.3370  149.0510 O   0  0  0  0  0  0  0  0  0  0  0  0
  143.9860  139.1630  149.9020 C   0  0  0  0  0  2  0  0  0  0  0  0
  145.0380  139.9360  150.6930 C   0  0  0  0  0  2  0  0  0  0  0  0
  145.3940  141.2560  150.0060 C   0  0  0  0  0  2  0  0  0  0  0  0
  145.4920  142.3930  151.0230 C   0  0  0  0  0  2  0  0  0  0  0  0
  146.6320  142.1950  151.9890 C   0  0  0  0  0  0  0  0  0  0  0  0
  147.9500  142.0920  151.5240 C   0  0  0  0  0  3  0  0  0  0  0  0
  149.0060  141.9300  152.4220 C   0  0  0  0  0  3  0  0  0  0  0  0
  148.7540  141.8590  153.7910 C   0  0  0  0  0  3  0  0  0  0  0  0
  147.4450  141.9400  154.2620 C   0  0  0  0  0  3  0  0  0  0  0  0
  146.3880  142.1030  153.3650 C   0  0  0  0  0  3  0  0  0  0  0  0
  142.0400  137.1510  150.5450 C   0  0  0  0  0  2  0  0  0  0  0  0
  139.8310  138.1530  153.4990 C   0  0  0  0  0  0  0  0  0  0  0  0
  140.2440  137.7800  152.2140 C   0  0  0  0  0  3  0  0  0  0  0  0
  141.6000  137.5420  151.9350 C   0  0  0  0  0  0  0  0  0  0  0  0
  142.5430  137.6580  152.9630 C   0  0  0  0  0  3  0  0  0  0  0  0
  142.1440  138.0290  154.2470 C   0  0  0  0  0  3  0  0  0  0  0  0
  140.7970  138.2760  154.5060 C   0  0  0  0  0  0  0  0  0  0  0  0
  137.7600  137.3260  154.3460 C   0  0  0  0  0  1  0  0  0  0  0  0
  138.5380  138.4130  153.8650 O   0  0  0  0  0  0  0  0  0  0  0  0
  140.4080  138.6500  155.7660 O   0  0  0  0  0  0  0  0  0  0  0  0
  140.8590  138.3100  156.5140 H   0  0  0  0  0  0  0  0  0  0  0  0
  1 14  1  0  0  0  0
  2  4  1  0  0  0  0
  2  1  1  0  0  0  0
  3  2  2  0  0  0  0
  4  5  1  0  0  0  0
  6  5  1  0  0  0  0
  6  7  1  0  0  0  0
  7  8  1  0  0  0  0
  8 13  1  0  0  0  0
  9  8  2  0  0  0  0
  9 10  1  0  0  0  0
 10 11  2  0  0  0  0
 11 12  1  0  0  0  0
 13 12  2  0  0  0  0
 14 17  1  0  0  0  0
 15 22  1  0  0  0  0
 15 20  1  0  0  0  0
 16 15  2  0  0  0  0
 17 16  1  0  0  0  0
 17 18  2  0  0  0  0
 18 19  1  0  0  0  0
 19 20  2  0  0  0  0
 20 23  1  0  0  0  0
 22 21  1  0  0  0  0
 23 24  1  0  0  0  0
M  END
>  <MODEL>
5

>  <REMARK>
 VINA RESULT:    -6.727      3.604      5.554
 INTER + INTRA:         -12.311
 INTER:                 -11.258
 INTRA:                  -1.053
 UNBOUND:                -1.848
  Name = CHEMBL4545194
  11 active torsions:
  status: ('A' for Active; 'I' for Inactive)
    1  A    between atoms: C_1  and  O_2
    2  A    between atoms: O_2  and  C_3
    3  A    between atoms: C_5  and  C_6
    4  A    between atoms: C_6  and  C_7
    5  A    between atoms: C_7  and  C_8
    6  A    between atoms: C_8  and  C_10
    7  A    between atoms: C_10  and  C_11
    8  A    between atoms: C_11  and  C_12
    9  A    between atoms: C_12  and  C_13
   10  A    between atoms: C_13  and  C_14
   11  A    between atoms: C_22  and  O_23
                            x       y       z     vdW  Elec       q    Type
                         _______ _______ _______ _____ _____    ______ ____

>  <TORSDO>
F 10

>  <SCORE>
-6.727

>  <RMSD_LB>
3.604

>  <RMSD_UB>
5.554

$$$$
CHEMBL4545194
 OpenBabel10172500403D

 24 25  0  0  0  0  0  0  0  0999 V2000
  144.1870  137.7540  149.9670 C   0  0  0  0  0  2  0  0  0  0  0  0
  145.6940  137.7770  150.1350 C   0  0  0  0  0  0  0  0  0  0  0  0
  146.4090  138.5220  149.4660 O   0  0  0  0  0  0  0  0  0  0  0  0
  146.2710  136.8280  151.1690 C   0  0  0  0  0  2  0  0  0  0  0  0
  147.4780  137.4320  151.8830 C   0  0  0  0  0  2  0  0  0  0  0  0
  147.0470  138.3520  153.0270 C   0  0  0  0  0  2  0  0  0  0  0  0
  147.8350  139.6620  153.0030 C   0  0  0  0  0  2  0  0  0  0  0  0
  147.1780  140.7050  152.1360 C   0  0  0  0  0  0  0  0  0  0  0  0
  147.9460  141.5110  151.2850 C   0  0  0  0  0  3  0  0  0  0  0  0
  147.3330  142.4620  150.4680 C   0  0  0  0  0  3  0  0  0  0  0  0
  145.9490  142.6220  150.4990 C   0  0  0  0  0  3  0  0  0  0  0  0
  145.1780  141.8390  151.3550 C   0  0  0  0  0  3  0  0  0  0  0  0
  145.7890  140.8870  152.1740 C   0  0  0  0  0  3  0  0  0  0  0  0
  143.5400  136.7780  150.9450 C   0  0  0  0  0  2  0  0  0  0  0  0
  140.5360  138.0890  152.9100 C   0  0  0  0  0  0  0  0  0  0  0  0
  141.3090  137.4240  151.9510 C   0  0  0  0  0  3  0  0  0  0  0  0
  142.7120  137.4890  151.9880 C   0  0  0  0  0  0  0  0  0  0  0  0
  143.3410  138.2120  153.0090 C   0  0  0  0  0  3  0  0  0  0  0  0
  142.5810  138.8800  153.9690 C   0  0  0  0  0  3  0  0  0  0  0  0
  141.1890  138.8180  153.9130 C   0  0  0  0  0  0  0  0  0  0  0  0
  138.4730  137.6860  151.7830 C   0  0  0  0  0  1  0  0  0  0  0  0
  139.1680  138.0910  152.9540 O   0  0  0  0  0  0  0  0  0  0  0  0
  140.4440  139.4830  154.8520 O   0  0  0  0  0  0  0  0  0  0  0  0
  139.7300  140.0270  154.5820 H   0  0  0  0  0  0  0  0  0  0  0  0
  1  2  1  0  0  0  0
  1 14  1  0  0  0  0
  2  4  1  0  0  0  0
  3  2  2  0  0  0  0
  4  5  1  0  0  0  0
  5  6  1  0  0  0  0
  7  6  1  0  0  0  0
  8 13  1  0  0  0  0
  8  7  1  0  0  0  0
  9  8  2  0  0  0  0
 10 11  2  0  0  0  0
 10  9  1  0  0  0  0
 11 12  1  0  0  0  0
 12 13  2  0  0  0  0
 14 17  1  0  0  0  0
 15 22  1  0  0  0  0
 15 20  1  0  0  0  0
 16 17  1  0  0  0  0
 16 15  2  0  0  0  0
 17 18  2  0  0  0  0
 18 19  1  0  0  0  0
 20 19  2  0  0  0  0
 20 23  1  0  0  0  0
 21 22  1  0  0  0  0
 24 23  1  0  0  0  0
M  END
>  <MODEL>
6

>  <REMARK>
 VINA RESULT:    -6.374      3.152      4.545
 INTER + INTRA:         -11.761
 INTER:                  -9.688
 INTRA:                  -2.073
 UNBOUND:                -1.848
  Name = CHEMBL4545194
  11 active torsions:
  status: ('A' for Active; 'I' for Inactive)
    1  A    between atoms: C_1  and  O_2
    2  A    between atoms: O_2  and  C_3
    3  A    between atoms: C_5  and  C_6
    4  A    between atoms: C_6  and  C_7
    5  A    between atoms: C_7  and  C_8
    6  A    between atoms: C_8  and  C_10
    7  A    between atoms: C_10  and  C_11
    8  A    between atoms: C_11  and  C_12
    9  A    between atoms: C_12  and  C_13
   10  A    between atoms: C_13  and  C_14
   11  A    between atoms: C_22  and  O_23
                            x       y       z     vdW  Elec       q    Type
                         _______ _______ _______ _____ _____    ______ ____

>  <TORSDO>
F 10

>  <SCORE>
-6.374

>  <RMSD_LB>
3.152

>  <RMSD_UB>
4.545

$$$$
CHEMBL4545194
 OpenBabel10172500403D

 24 25  0  0  0  0  0  0  0  0999 V2000
  146.3940  140.6890  148.9810 C   0  0  0  0  0  2  0  0  0  0  0  0
  145.0230  140.3320  148.4420 C   0  0  0  0  0  0  0  0  0  0  0  0
  144.7790  140.3340  147.2350 O   0  0  0  0  0  0  0  0  0  0  0  0
  143.9660  139.9740  149.4710 C   0  0  0  0  0  2  0  0  0  0  0  0
  144.2410  138.6210  150.1220 C   0  0  0  0  0  2  0  0  0  0  0  0
  143.8200  138.6130  151.5920 C   0  0  0  0  0  2  0  0  0  0  0  0
  143.0880  137.3180  151.9460 C   0  0  0  0  0  2  0  0  0  0  0  0
  141.5920  137.4970  151.9600 C   0  0  0  0  0  0  0  0  0  0  0  0
  140.8320  137.2330  150.8130 C   0  0  0  0  0  3  0  0  0  0  0  0
  139.4440  137.3790  150.8350 C   0  0  0  0  0  3  0  0  0  0  0  0
  138.8040  137.7980  152.0000 C   0  0  0  0  0  3  0  0  0  0  0  0
  139.5530  138.0830  153.1400 C   0  0  0  0  0  3  0  0  0  0  0  0
  140.9410  137.9380  153.1200 C   0  0  0  0  0  3  0  0  0  0  0  0
  146.3290  141.9300  149.8660 C   0  0  0  0  0  2  0  0  0  0  0  0
  146.9700  140.9250  153.4970 C   0  0  0  0  0  0  0  0  0  0  0  0
  146.3380  141.1170  152.2620 C   0  0  0  0  0  3  0  0  0  0  0  0
  147.0200  141.7160  151.1900 C   0  0  0  0  0  0  0  0  0  0  0  0
  148.3550  142.1050  151.3570 C   0  0  0  0  0  3  0  0  0  0  0  0
  148.9950  141.9200  152.5820 C   0  0  0  0  0  3  0  0  0  0  0  0
  148.3020  141.3360  153.6410 C   0  0  0  0  0  0  0  0  0  0  0  0
  146.1230  138.9640  154.5580 C   0  0  0  0  0  1  0  0  0  0  0  0
  146.3880  140.3590  154.5990 O   0  0  0  0  0  0  0  0  0  0  0  0
  148.9290  141.1640  154.8470 O   0  0  0  0  0  0  0  0  0  0  0  0
  149.7670  140.7440  154.8820 H   0  0  0  0  0  0  0  0  0  0  0  0
  1 14  1  0  0  0  0
  2  1  1  0  0  0  0
  2  4  1  0  0  0  0
  3  2  2  0  0  0  0
  4  5  1  0  0  0  0
  5  6  1  0  0  0  0
  6  7  1  0  0  0  0
  7  8  1  0  0  0  0
  8 13  1  0  0  0  0
  9 10  1  0  0  0  0
  9  8  2  0  0  0  0
 10 11  2  0  0  0  0
 11 12  1  0  0  0  0
 13 12  2  0  0  0  0
 14 17  1  0  0  0  0
 15 20  1  0  0  0  0
 15 22  1  0  0  0  0
 16 15  2  0  0  0  0
 17 18  2  0  0  0  0
 17 16  1  0  0  0  0
 18 19  1  0  0  0  0
 19 20  2  0  0  0  0
 20 23  1  0  0  0  0
 21 22  1  0  0  0  0
 23 24  1  0  0  0  0
M  END
>  <MODEL>
7

>  <REMARK>
 VINA RESULT:    -6.222      2.746      6.716
 INTER + INTRA:         -11.525
 INTER:                 -10.159
 INTRA:                  -1.366
 UNBOUND:                -1.848
  Name = CHEMBL4545194
  11 active torsions:
  status: ('A' for Active; 'I' for Inactive)
    1  A    between atoms: C_1  and  O_2
    2  A    between atoms: O_2  and  C_3
    3  A    between atoms: C_5  and  C_6
    4  A    between atoms: C_6  and  C_7
    5  A    between atoms: C_7  and  C_8
    6  A    between atoms: C_8  and  C_10
    7  A    between atoms: C_10  and  C_11
    8  A    between atoms: C_11  and  C_12
    9  A    between atoms: C_12  and  C_13
   10  A    between atoms: C_13  and  C_14
   11  A    between atoms: C_22  and  O_23
                            x       y       z     vdW  Elec       q    Type
                         _______ _______ _______ _____ _____    ______ ____

>  <TORSDO>
F 10

>  <SCORE>
-6.222

>  <RMSD_LB>
2.746

>  <RMSD_UB>
6.716

$$$$
CHEMBL4545194
 OpenBabel10172500403D

 24 25  0  0  0  0  0  0  0  0999 V2000
  143.7320  137.5240  151.6360 C   0  0  0  0  0  2  0  0  0  0  0  0
  145.2150  137.7680  151.4310 C   0  0  0  0  0  0  0  0  0  0  0  0
  146.0330  137.5830  152.3310 O   0  0  0  0  0  0  0  0  0  0  0  0
  145.6340  138.2560  150.0560 C   0  0  0  0  0  2  0  0  0  0  0  0
  146.5450  139.4790  150.1400 C   0  0  0  0  0  2  0  0  0  0  0  0
  145.7640  140.7730  149.9070 C   0  0  0  0  0  2  0  0  0  0  0  0
  146.6360  141.9960  150.1910 C   0  0  0  0  0  2  0  0  0  0  0  0
  147.2360  141.9590  151.5720 C   0  0  0  0  0  0  0  0  0  0  0  0
  148.6270  141.9280  151.7440 C   0  0  0  0  0  3  0  0  0  0  0  0
  149.1810  141.9140  153.0250 C   0  0  0  0  0  3  0  0  0  0  0  0
  148.3510  141.9230  154.1450 C   0  0  0  0  0  3  0  0  0  0  0  0
  146.9670  141.9340  153.9850 C   0  0  0  0  0  3  0  0  0  0  0  0
  146.4110  141.9470  152.7050 C   0  0  0  0  0  3  0  0  0  0  0  0
  143.0120  138.8120  152.0220 C   0  0  0  0  0  2  0  0  0  0  0  0
  139.9230  138.1560  154.1750 C   0  0  0  0  0  0  0  0  0  0  0  0
  141.2460  138.4010  153.7880 C   0  0  0  0  0  3  0  0  0  0  0  0
  141.5820  138.5580  152.4330 C   0  0  0  0  0  0  0  0  0  0  0  0
  140.5750  138.4870  151.4630 C   0  0  0  0  0  3  0  0  0  0  0  0
  139.2540  138.2420  151.8350 C   0  0  0  0  0  3  0  0  0  0  0  0
  138.9370  138.0750  153.1820 C   0  0  0  0  0  0  0  0  0  0  0  0
  140.4690  137.5910  156.4270 C   0  0  0  0  0  1  0  0  0  0  0  0
  139.4990  137.9820  155.4650 O   0  0  0  0  0  0  0  0  0  0  0  0
  137.6390  137.8250  153.5460 O   0  0  0  0  0  0  0  0  0  0  0  0
  137.2610  136.9840  153.3780 H   0  0  0  0  0  0  0  0  0  0  0  0
  1 14  1  0  0  0  0
  2  1  1  0  0  0  0
  2  3  2  0  0  0  0
  4  5  1  0  0  0  0
  4  2  1  0  0  0  0
  6  5  1  0  0  0  0
  6  7  1  0  0  0  0
  7  8  1  0  0  0  0
  8  9  2  0  0  0  0
  8 13  1  0  0  0  0
  9 10  1  0  0  0  0
 10 11  2  0  0  0  0
 12 11  1  0  0  0  0
 13 12  2  0  0  0  0
 14 17  1  0  0  0  0
 15 22  1  0  0  0  0
 16 15  1  0  0  0  0
 17 16  2  0  0  0  0
 18 19  2  0  0  0  0
 18 17  1  0  0  0  0
 19 20  1  0  0  0  0
 20 23  1  0  0  0  0
 20 15  2  0  0  0  0
 22 21  1  0  0  0  0
 24 23  1  0  0  0  0
M  END
>  <MODEL>
8

>  <REMARK>
 VINA RESULT:    -6.056      3.621      5.514
 INTER + INTRA:         -11.267
 INTER:                 -10.310
 INTRA:                  -0.956
 UNBOUND:                -1.848
  Name = CHEMBL4545194
  11 active torsions:
  status: ('A' for Active; 'I' for Inactive)
    1  A    between atoms: C_1  and  O_2
    2  A    between atoms: O_2  and  C_3
    3  A    between atoms: C_5  and  C_6
    4  A    between atoms: C_6  and  C_7
    5  A    between atoms: C_7  and  C_8
    6  A    between atoms: C_8  and  C_10
    7  A    between atoms: C_10  and  C_11
    8  A    between atoms: C_11  and  C_12
    9  A    between atoms: C_12  and  C_13
   10  A    between atoms: C_13  and  C_14
   11  A    between atoms: C_22  and  O_23
                            x       y       z     vdW  Elec       q    Type
                         _______ _______ _______ _____ _____    ______ ____

>  <TORSDO>
F 10

>  <SCORE>
-6.056

>  <RMSD_LB>
3.621

>  <RMSD_UB>
5.514

$$$$
CHEMBL4545194
 OpenBabel10172500403D

 24 25  0  0  0  0  0  0  0  0999 V2000
  134.5470  133.5730  147.1900 C   0  0  0  0  0  2  0  0  0  0  0  0
  134.1000  132.6210  148.2820 C   0  0  0  0  0  0  0  0  0  0  0  0
  134.3960  131.4270  148.2630 O   0  0  0  0  0  0  0  0  0  0  0  0
  133.2650  133.2210  149.3990 C   0  0  0  0  0  2  0  0  0  0  0  0
  133.7440  134.6200  149.7790 C   0  0  0  0  0  2  0  0  0  0  0  0
  132.5750  135.5210  150.1780 C   0  0  0  0  0  2  0  0  0  0  0  0
  132.7990  136.9540  149.6960 C   0  0  0  0  0  2  0  0  0  0  0  0
  133.3310  137.0040  148.2870 C   0  0  0  0  0  0  0  0  0  0  0  0
  132.4620  136.8900  147.1930 C   0  0  0  0  0  3  0  0  0  0  0  0
  132.9550  136.9570  145.8890 C   0  0  0  0  0  3  0  0  0  0  0  0
  134.3200  137.1300  145.6660 C   0  0  0  0  0  3  0  0  0  0  0  0
  135.1940  137.2240  146.7460 C   0  0  0  0  0  3  0  0  0  0  0  0
  134.7040  137.1570  148.0520 C   0  0  0  0  0  3  0  0  0  0  0  0
  136.0670  133.5870  147.0620 C   0  0  0  0  0  2  0  0  0  0  0  0
  137.5350  133.9000  143.5470 C   0  0  0  0  0  0  0  0  0  0  0  0
  137.1220  134.2120  144.8480 C   0  0  0  0  0  3  0  0  0  0  0  0
  136.5190  133.2410  145.6640 C   0  0  0  0  0  0  0  0  0  0  0  0
  136.3500  131.9400  145.1740 C   0  0  0  0  0  3  0  0  0  0  0  0
  136.7560  131.6170  143.8800 C   0  0  0  0  0  3  0  0  0  0  0  0
  137.3410  132.5950  143.0760 C   0  0  0  0  0  0  0  0  0  0  0  0
  139.0900  135.6750  143.2020 C   0  0  0  0  0  1  0  0  0  0  0  0
  138.1230  134.7770  142.6760 O   0  0  0  0  0  0  0  0  0  0  0  0
  137.7310  132.2780  141.8010 O   0  0  0  0  0  0  0  0  0  0  0  0
  137.7940  131.3790  141.5410 H   0  0  0  0  0  0  0  0  0  0  0  0
  1  2  1  0  0  0  0
  2  4  1  0  0  0  0
  3  2  2  0  0  0  0
  4  5  1  0  0  0  0
  5  6  1  0  0  0  0
  7  6  1  0  0  0  0
  8  7  1  0  0  0  0
  9  8  2  0  0  0  0
 10  9  1  0  0  0  0
 11 10  2  0  0  0  0
 11 12  1  0  0  0  0
 12 13  2  0  0  0  0
 13  8  1  0  0  0  0
 14  1  1  0  0  0  0
 15 16  1  0  0  0  0
 16 17  2  0  0  0  0
 17 14  1  0  0  0  0
 18 17  1  0  0  0  0
 19 18  2  0  0  0  0
 20 15  2  0  0  0  0
 20 19  1  0  0  0  0
 22 21  1  0  0  0  0
 22 15  1  0  0  0  0
 23 20  1  0  0  0  0
 24 23  1  0  0  0  0
M  END
>  <MODEL>
9

>  <REMARK>
 VINA RESULT:    -6.007     12.109     13.639
 INTER + INTRA:         -11.191
 INTER:                  -9.344
 INTRA:                  -1.848
 UNBOUND:                -1.848
  Name = CHEMBL4545194
  11 active torsions:
  status: ('A' for Active; 'I' for Inactive)
    1  A    between atoms: C_1  and  O_2
    2  A    between atoms: O_2  and  C_3
    3  A    between atoms: C_5  and  C_6
    4  A    between atoms: C_6  and  C_7
    5  A    between atoms: C_7  and  C_8
    6  A    between atoms: C_8  and  C_10
    7  A    between atoms: C_10  and  C_11
    8  A    between atoms: C_11  and  C_12
    9  A    between atoms: C_12  and  C_13
   10  A    between atoms: C_13  and  C_14
   11  A    between atoms: C_22  and  O_23
                            x       y       z     vdW  Elec       q    Type
                         _______ _______ _______ _____ _____    ______ ____

>  <TORSDO>
F 10

>  <SCORE>
-6.007

>  <RMSD_LB>
12.109

>  <RMSD_UB>
13.639

$$$$
