CHEMBL1312750
 OpenBabel10172500353D

 24 24  0  0  1  0  0  0  0  0999 V2000
  142.0800  140.0230  151.1010 N   0  0  0  0  0  0  0  0  0  0  0  0
  141.1540  139.0150  150.9510 C   0  0  0  0  0  0  0  0  0  0  0  0
  141.3710  137.9940  150.2980 O   0  0  0  0  0  0  0  0  0  0  0  0
  141.8010  140.8650  151.5260 H   0  0  0  0  0  0  0  0  0  0  0  0
  143.4470  139.8890  150.6530 C   0  0  0  0  0  2  0  0  0  0  0  0
  146.3160  141.5660  153.4270 C   0  0  0  0  0  0  0  0  0  0  0  0
  146.0550  142.1880  152.1980 C   0  0  0  0  0  3  0  0  0  0  0  0
  145.1110  141.6570  151.3130 C   0  0  0  0  0  3  0  0  0  0  0  0
  144.4320  140.4780  151.6240 C   0  0  0  0  0  0  0  0  0  0  0  0
  144.6900  139.8560  152.8520 C   0  0  0  0  0  3  0  0  0  0  0  0
  145.6110  140.3980  153.7600 C   0  0  0  0  0  0  0  0  0  0  0  0
  148.6310  141.7060  153.9430 C   0  0  0  0  0  1  0  0  0  0  0  0
  147.2860  142.0090  154.2880 O   0  0  0  0  0  0  0  0  0  0  0  0
  145.7430  139.6590  154.9090 O   0  0  0  0  0  0  0  0  0  0  0  0
  146.6390  138.5550  154.8400 C   0  0  0  0  0  1  0  0  0  0  0  0
  139.8000  139.2950  151.6430 C   0  0  1  0  0  3  0  0  0  0  0  0
  138.7720  139.4150  150.6080 N   0  0  0  0  0  0  0  0  0  0  0  0
  138.7170  140.4790  149.7440 C   0  0  0  0  0  0  0  0  0  0  0  0
  137.5080  140.4660  148.8440 C   0  0  0  0  0  1  0  0  0  0  0  0
  139.5440  141.3860  149.7430 O   0  0  0  0  0  0  0  0  0  0  0  0
  138.0950  138.7060  150.5290 H   0  0  0  0  0  0  0  0  0  0  0  0
  139.4180  138.1670  152.6310 C   0  0  0  0  0  3  0  0  0  0  0  0
  139.2610  138.6850  154.0660 C   0  0  0  0  0  1  0  0  0  0  0  0
  138.1120  137.4770  152.2140 C   0  0  0  0  0  1  0  0  0  0  0  0
  1  4  1  0  0  0  0
  2  1  1  0  0  0  0
  3  2  2  0  0  0  0
  5  1  1  0  0  0  0
  5  9  1  0  0  0  0
  6 11  1  0  0  0  0
  6 13  1  0  0  0  0
  7  6  2  0  0  0  0
  8  9  2  0  0  0  0
  8  7  1  0  0  0  0
  9 10  1  0  0  0  0
 10 11  2  0  0  0  0
 11 14  1  0  0  0  0
 12 13  1  0  0  0  0
 15 14  1  0  0  0  0
 16  2  1  6  0  0  0
 16 22  1  0  0  0  0
 17 16  1  0  0  0  0
 18 17  1  0  0  0  0
 19 18  1  0  0  0  0
 20 18  2  0  0  0  0
 21 17  1  0  0  0  0
 22 23  1  0  0  0  0
 24 22  1  0  0  0  0
M  END
>  <MODEL>
1

>  <REMARK>
 VINA RESULT:    -6.711      0.000      0.000
 INTER + INTRA:         -10.347
 INTER:                  -9.587
 INTRA:                  -0.760
 UNBOUND:                -0.890
  Name = CHEMBL1312750
  12 active torsions:
  status: ('A' for Active; 'I' for Inactive)
    1  A    between atoms: C_1  and  O_2
    2  A    between atoms: O_2  and  C_3
    3  A    between atoms: C_6  and  C_7
    4  A    between atoms: C_7  and  N_8
    5  A    between atoms: C_9  and  C_11
    6  A    between atoms: C_11  and  N_12
    7  A    between atoms: C_11  and  C_16
    8  A    between atoms: C_13  and  C_14
    9  A    between atoms: C_16  and  C_17
   10  A    between atoms: C_16  and  C_18
   11  A    between atoms: C_20  and  O_21
   12  A    between atoms: O_21  and  C_22
                            x       y       z     vdW  Elec       q    Type
                         _______ _______ _______ _____ _____    ______ ____

>  <TORSDO>
F 7

>  <SCORE>
-6.711

>  <RMSD_LB>
0.000

>  <RMSD_UB>
0.000

$$$$
CHEMBL1312750
 OpenBabel10172500353D

 24 24  0  0  1  0  0  0  0  0999 V2000
  138.3010  137.6120  153.9700 N   0  0  0  0  0  0  0  0  0  0  0  0
  137.4080  138.0230  154.9340 C   0  0  0  0  0  0  0  0  0  0  0  0
  137.1600  139.2090  155.1590 O   0  0  0  0  0  0  0  0  0  0  0  0
  138.5490  136.6600  153.9270 H   0  0  0  0  0  0  0  0  0  0  0  0
  138.8890  138.5270  153.0200 C   0  0  0  0  0  2  0  0  0  0  0  0
  142.8650  137.2980  151.8260 C   0  0  0  0  0  0  0  0  0  0  0  0
  141.7860  137.2120  150.9350 C   0  0  0  0  0  3  0  0  0  0  0  0
  140.5080  137.6300  151.3150 C   0  0  0  0  0  3  0  0  0  0  0  0
  140.2730  138.1150  152.6030 C   0  0  0  0  0  0  0  0  0  0  0  0
  141.3500  138.2050  153.4950 C   0  0  0  0  0  3  0  0  0  0  0  0
  142.6420  137.8170  153.1120 C   0  0  0  0  0  0  0  0  0  0  0  0
  144.2860  136.2640  150.2280 C   0  0  0  0  0  1  0  0  0  0  0  0
  144.1160  136.8300  151.5210 O   0  0  0  0  0  0  0  0  0  0  0  0
  143.5740  137.9680  154.1090 O   0  0  0  0  0  0  0  0  0  0  0  0
  144.0890  139.2830  154.2860 C   0  0  0  0  0  1  0  0  0  0  0  0
  136.7720  136.8660  155.7390 C   0  0  1  0  0  3  0  0  0  0  0  0
  136.5070  135.7590  154.8180 N   0  0  0  0  0  0  0  0  0  0  0  0
  135.2990  135.5960  154.1890 C   0  0  0  0  0  0  0  0  0  0  0  0
  135.2000  134.3240  153.3870 C   0  0  0  0  0  1  0  0  0  0  0  0
  134.3670  136.3840  154.3130 O   0  0  0  0  0  0  0  0  0  0  0  0
  137.2230  135.1060  154.6450 H   0  0  0  0  0  0  0  0  0  0  0  0
  137.6990  136.3870  156.8810 C   0  0  0  0  0  3  0  0  0  0  0  0
  138.3410  137.5590  157.6330 C   0  0  0  0  0  1  0  0  0  0  0  0
  136.9400  135.5140  157.8900 C   0  0  0  0  0  1  0  0  0  0  0  0
  1  2  1  0  0  0  0
  2  3  2  0  0  0  0
  4  1  1  0  0  0  0
  5  1  1  0  0  0  0
  6 11  1  0  0  0  0
  7  8  1  0  0  0  0
  7  6  2  0  0  0  0
  8  9  2  0  0  0  0
  9  5  1  0  0  0  0
  9 10  1  0  0  0  0
 11 10  2  0  0  0  0
 11 14  1  0  0  0  0
 12 13  1  0  0  0  0
 13  6  1  0  0  0  0
 14 15  1  0  0  0  0
 16  2  1  6  0  0  0
 16 22  1  0  0  0  0
 17 16  1  0  0  0  0
 18 20  2  0  0  0  0
 18 17  1  0  0  0  0
 19 18  1  0  0  0  0
 21 17  1  0  0  0  0
 22 23  1  0  0  0  0
 22 24  1  0  0  0  0
M  END
>  <MODEL>
2

>  <REMARK>
 VINA RESULT:    -6.445      3.893      5.868
 INTER + INTRA:          -9.972
 INTER:                  -9.389
 INTRA:                  -0.583
 UNBOUND:                -0.890
  Name = CHEMBL1312750
  12 active torsions:
  status: ('A' for Active; 'I' for Inactive)
    1  A    between atoms: C_1  and  O_2
    2  A    between atoms: O_2  and  C_3
    3  A    between atoms: C_6  and  C_7
    4  A    between atoms: C_7  and  N_8
    5  A    between atoms: C_9  and  C_11
    6  A    between atoms: C_11  and  N_12
    7  A    between atoms: C_11  and  C_16
    8  A    between atoms: C_13  and  C_14
    9  A    between atoms: C_16  and  C_17
   10  A    between atoms: C_16  and  C_18
   11  A    between atoms: C_20  and  O_21
   12  A    between atoms: O_21  and  C_22
                            x       y       z     vdW  Elec       q    Type
                         _______ _______ _______ _____ _____    ______ ____

>  <TORSDO>
F 7

>  <SCORE>
-6.445

>  <RMSD_LB>
3.893

>  <RMSD_UB>
5.868

$$$$
CHEMBL1312750
 OpenBabel10172500353D

 24 24  0  0  1  0  0  0  0  0999 V2000
  138.4090  137.7470  154.5500 N   0  0  0  0  0  0  0  0  0  0  0  0
  137.2730  138.0260  155.2760 C   0  0  0  0  0  0  0  0  0  0  0  0
  136.9440  139.1690  155.5960 O   0  0  0  0  0  0  0  0  0  0  0  0
  138.6820  136.8080  154.4380 H   0  0  0  0  0  0  0  0  0  0  0  0
  139.2160  138.7820  153.9480 C   0  0  0  0  0  2  0  0  0  0  0  0
  142.8030  137.2630  152.0610 C   0  0  0  0  0  0  0  0  0  0  0  0
  142.8350  137.7630  153.3700 C   0  0  0  0  0  3  0  0  0  0  0  0
  141.6710  138.2320  153.9860 C   0  0  0  0  0  3  0  0  0  0  0  0
  140.4570  138.2410  153.2960 C   0  0  0  0  0  0  0  0  0  0  0  0
  140.4230  137.7400  151.9880 C   0  0  0  0  0  3  0  0  0  0  0  0
  141.5790  137.2380  151.3740 C   0  0  0  0  0  0  0  0  0  0  0  0
  144.6820  137.8850  150.7460 C   0  0  0  0  0  1  0  0  0  0  0  0
  143.9320  136.8650  151.3930 O   0  0  0  0  0  0  0  0  0  0  0  0
  141.3650  136.7920  150.0930 O   0  0  0  0  0  0  0  0  0  0  0  0
  140.9000  137.7660  149.1640 C   0  0  0  0  0  1  0  0  0  0  0  0
  136.4670  136.7740  155.6930 C   0  0  1  0  0  3  0  0  0  0  0  0
  136.5270  135.8050  154.5970 N   0  0  0  0  0  0  0  0  0  0  0  0
  135.4880  135.6140  153.7230 C   0  0  0  0  0  0  0  0  0  0  0  0
  135.7120  134.4820  152.7540 C   0  0  0  0  0  1  0  0  0  0  0  0
  134.4490  136.2660  153.7640 O   0  0  0  0  0  0  0  0  0  0  0  0
  137.3460  135.2700  154.4840 H   0  0  0  0  0  0  0  0  0  0  0  0
  137.0280  136.1370  156.9870 C   0  0  0  0  0  3  0  0  0  0  0  0
  137.5380  137.1930  157.9760 C   0  0  0  0  0  1  0  0  0  0  0  0
  135.9700  135.2770  157.6910 C   0  0  0  0  0  1  0  0  0  0  0  0
  1  2  1  0  0  0  0
  2  3  2  0  0  0  0
  4  1  1  0  0  0  0
  5  1  1  0  0  0  0
  6  7  1  0  0  0  0
  7  8  2  0  0  0  0
  9  5  1  0  0  0  0
  9  8  1  0  0  0  0
 10  9  2  0  0  0  0
 11 10  1  0  0  0  0
 11  6  2  0  0  0  0
 12 13  1  0  0  0  0
 13  6  1  0  0  0  0
 14 11  1  0  0  0  0
 15 14  1  0  0  0  0
 16  2  1  6  0  0  0
 16 22  1  0  0  0  0
 17 16  1  0  0  0  0
 18 20  2  0  0  0  0
 18 17  1  0  0  0  0
 19 18  1  0  0  0  0
 21 17  1  0  0  0  0
 22 24  1  0  0  0  0
 22 23  1  0  0  0  0
M  END
>  <MODEL>
3

>  <REMARK>
 VINA RESULT:    -6.352      3.951      6.216
 INTER + INTRA:          -9.842
 INTER:                  -9.264
 INTRA:                  -0.578
 UNBOUND:                -0.890
  Name = CHEMBL1312750
  12 active torsions:
  status: ('A' for Active; 'I' for Inactive)
    1  A    between atoms: C_1  and  O_2
    2  A    between atoms: O_2  and  C_3
    3  A    between atoms: C_6  and  C_7
    4  A    between atoms: C_7  and  N_8
    5  A    between atoms: C_9  and  C_11
    6  A    between atoms: C_11  and  N_12
    7  A    between atoms: C_11  and  C_16
    8  A    between atoms: C_13  and  C_14
    9  A    between atoms: C_16  and  C_17
   10  A    between atoms: C_16  and  C_18
   11  A    between atoms: C_20  and  O_21
   12  A    between atoms: O_21  and  C_22
                            x       y       z     vdW  Elec       q    Type
                         _______ _______ _______ _____ _____    ______ ____

>  <TORSDO>
F 7

>  <SCORE>
-6.352

>  <RMSD_LB>
3.951

>  <RMSD_UB>
6.216

$$$$
CHEMBL1312750
 OpenBabel10172500353D

 24 24  0  0  1  0  0  0  0  0999 V2000
  143.0250  139.6520  153.8070 N   0  0  0  0  0  0  0  0  0  0  0  0
  144.3740  139.4010  153.9240 C   0  0  0  0  0  0  0  0  0  0  0  0
  144.8590  138.7430  154.8460 O   0  0  0  0  0  0  0  0  0  0  0  0
  142.7180  140.2880  153.1220 H   0  0  0  0  0  0  0  0  0  0  0  0
  142.0450  139.0160  154.6550 C   0  0  0  0  0  2  0  0  0  0  0  0
  138.5850  137.6670  152.4300 C   0  0  0  0  0  0  0  0  0  0  0  0
  139.8480  137.7360  151.8250 C   0  0  0  0  0  3  0  0  0  0  0  0
  140.9680  138.1500  152.5520 C   0  0  0  0  0  3  0  0  0  0  0  0
  140.8450  138.5340  153.8890 C   0  0  0  0  0  0  0  0  0  0  0  0
  139.5840  138.4640  154.4960 C   0  0  0  0  0  3  0  0  0  0  0  0
  138.4610  138.0200  153.7840 C   0  0  0  0  0  0  0  0  0  0  0  0
  137.6140  136.4760  150.6180 C   0  0  0  0  0  1  0  0  0  0  0  0
  137.4500  137.3400  151.7360 O   0  0  0  0  0  0  0  0  0  0  0  0
  137.3090  138.0180  154.5300 O   0  0  0  0  0  0  0  0  0  0  0  0
  137.4780  138.1470  155.9370 C   0  0  0  0  0  1  0  0  0  0  0  0
  145.2350  140.0530  152.8170 C   0  0  1  0  0  3  0  0  0  0  0  0
  144.3780  140.3010  151.6570 N   0  0  0  0  0  0  0  0  0  0  0  0
  144.3430  139.4610  150.5730 C   0  0  0  0  0  0  0  0  0  0  0  0
  143.4900  139.9710  149.4390 C   0  0  0  0  0  1  0  0  0  0  0  0
  144.9900  138.4210  150.5100 O   0  0  0  0  0  0  0  0  0  0  0  0
  143.8050  141.1020  151.6540 H   0  0  0  0  0  0  0  0  0  0  0  0
  145.8680  141.3830  153.2940 C   0  0  0  0  0  3  0  0  0  0  0  0
  147.2860  141.1820  153.8430 C   0  0  0  0  0  1  0  0  0  0  0  0
  145.9230  142.4140  152.1590 C   0  0  0  0  0  1  0  0  0  0  0  0
  1  2  1  0  0  0  0
  1  5  1  0  0  0  0
  2  3  2  0  0  0  0
  4  1  1  0  0  0  0
  6 11  1  0  0  0  0
  7  6  2  0  0  0  0
  7  8  1  0  0  0  0
  8  9  2  0  0  0  0
  9 10  1  0  0  0  0
  9  5  1  0  0  0  0
 11 10  2  0  0  0  0
 11 14  1  0  0  0  0
 12 13  1  0  0  0  0
 13  6  1  0  0  0  0
 14 15  1  0  0  0  0
 16 22  1  1  0  0  0
 16  2  1  0  0  0  0
 17 16  1  0  0  0  0
 18 17  1  0  0  0  0
 19 18  1  0  0  0  0
 20 18  2  0  0  0  0
 21 17  1  0  0  0  0
 22 23  1  0  0  0  0
 24 22  1  0  0  0  0
M  END
>  <MODEL>
4

>  <REMARK>
 VINA RESULT:    -6.284      2.575      7.326
 INTER + INTRA:          -9.745
 INTER:                  -8.940
 INTRA:                  -0.805
 UNBOUND:                -0.890
  Name = CHEMBL1312750
  12 active torsions:
  status: ('A' for Active; 'I' for Inactive)
    1  A    between atoms: C_1  and  O_2
    2  A    between atoms: O_2  and  C_3
    3  A    between atoms: C_6  and  C_7
    4  A    between atoms: C_7  and  N_8
    5  A    between atoms: C_9  and  C_11
    6  A    between atoms: C_11  and  N_12
    7  A    between atoms: C_11  and  C_16
    8  A    between atoms: C_13  and  C_14
    9  A    between atoms: C_16  and  C_17
   10  A    between atoms: C_16  and  C_18
   11  A    between atoms: C_20  and  O_21
   12  A    between atoms: O_21  and  C_22
                            x       y       z     vdW  Elec       q    Type
                         _______ _______ _______ _____ _____    ______ ____

>  <TORSDO>
F 7

>  <SCORE>
-6.284

>  <RMSD_LB>
2.575

>  <RMSD_UB>
7.326

$$$$
CHEMBL1312750
 OpenBabel10172500353D

 24 24  0  0  1  0  0  0  0  0999 V2000
  143.9800  139.2160  153.4000 N   0  0  0  0  0  0  0  0  0  0  0  0
  145.1070  139.2690  152.6100 C   0  0  0  0  0  0  0  0  0  0  0  0
  145.7090  138.2640  152.2300 O   0  0  0  0  0  0  0  0  0  0  0  0
  143.6220  140.0540  153.7730 H   0  0  0  0  0  0  0  0  0  0  0  0
  143.3060  137.9760  153.7010 C   0  0  0  0  0  2  0  0  0  0  0  0
  139.4990  137.6640  151.6640 C   0  0  0  0  0  0  0  0  0  0  0  0
  140.6920  137.3110  151.0180 C   0  0  0  0  0  3  0  0  0  0  0  0
  141.9180  137.3910  151.6850 C   0  0  0  0  0  3  0  0  0  0  0  0
  141.9810  137.8540  153.0010 C   0  0  0  0  0  0  0  0  0  0  0  0
  140.7900  138.2050  153.6490 C   0  0  0  0  0  3  0  0  0  0  0  0
  139.5530  138.0970  152.9980 C   0  0  0  0  0  0  0  0  0  0  0  0
  138.1160  138.6390  149.9960 C   0  0  0  0  0  1  0  0  0  0  0  0
  138.2870  137.6720  151.0250 O   0  0  0  0  0  0  0  0  0  0  0  0
  138.4910  138.4850  153.7780 O   0  0  0  0  0  0  0  0  0  0  0  0
  137.8290  137.4460  154.4910 C   0  0  0  0  0  1  0  0  0  0  0  0
  145.5750  140.7040  152.2740 C   0  0  1  0  0  3  0  0  0  0  0  0
  146.9350  140.8740  152.7890 N   0  0  0  0  0  0  0  0  0  0  0  0
  147.2330  141.7330  153.8160 C   0  0  0  0  0  0  0  0  0  0  0  0
  148.7080  141.8480  154.1010 C   0  0  0  0  0  1  0  0  0  0  0  0
  146.3820  142.3900  154.4090 O   0  0  0  0  0  0  0  0  0  0  0  0
  147.6640  140.3530  152.3820 H   0  0  0  0  0  0  0  0  0  0  0  0
  145.5550  140.9710  150.7500 C   0  0  0  0  0  3  0  0  0  0  0  0
  144.2030  140.6140  150.1190 C   0  0  0  0  0  1  0  0  0  0  0  0
  145.8700  142.4400  150.4350 C   0  0  0  0  0  1  0  0  0  0  0  0
  1  5  1  0  0  0  0
  1  4  1  0  0  0  0
  2  1  1  0  0  0  0
  3  2  2  0  0  0  0
  6 11  1  0  0  0  0
  7  6  2  0  0  0  0
  7  8  1  0  0  0  0
  8  9  2  0  0  0  0
  9 10  1  0  0  0  0
  9  5  1  0  0  0  0
 11 10  2  0  0  0  0
 11 14  1  0  0  0  0
 12 13  1  0  0  0  0
 13  6  1  0  0  0  0
 14 15  1  0  0  0  0
 16 22  1  6  0  0  0
 16  2  1  0  0  0  0
 16 17  1  0  0  0  0
 17 18  1  0  0  0  0
 18 19  1  0  0  0  0
 18 20  2  0  0  0  0
 21 17  1  0  0  0  0
 23 22  1  0  0  0  0
 24 22  1  0  0  0  0
M  END
>  <MODEL>
5

>  <REMARK>
 VINA RESULT:    -6.252      2.314      7.605
 INTER + INTRA:          -9.700
 INTER:                  -8.853
 INTRA:                  -0.847
 UNBOUND:                -0.890
  Name = CHEMBL1312750
  12 active torsions:
  status: ('A' for Active; 'I' for Inactive)
    1  A    between atoms: C_1  and  O_2
    2  A    between atoms: O_2  and  C_3
    3  A    between atoms: C_6  and  C_7
    4  A    between atoms: C_7  and  N_8
    5  A    between atoms: C_9  and  C_11
    6  A    between atoms: C_11  and  N_12
    7  A    between atoms: C_11  and  C_16
    8  A    between atoms: C_13  and  C_14
    9  A    between atoms: C_16  and  C_17
   10  A    between atoms: C_16  and  C_18
   11  A    between atoms: C_20  and  O_21
   12  A    between atoms: O_21  and  C_22
                            x       y       z     vdW  Elec       q    Type
                         _______ _______ _______ _____ _____    ______ ____

>  <TORSDO>
F 7

>  <SCORE>
-6.252

>  <RMSD_LB>
2.314

>  <RMSD_UB>
7.605

$$$$
CHEMBL1312750
 OpenBabel10172500353D

 24 24  0  0  1  0  0  0  0  0999 V2000
  136.9460  136.6370  150.9170 N   0  0  0  0  0  0  0  0  0  0  0  0
  135.9980  136.1810  150.0270 C   0  0  0  0  0  0  0  0  0  0  0  0
  136.0270  136.4390  148.8230 O   0  0  0  0  0  0  0  0  0  0  0  0
  136.7960  136.5040  151.8800 H   0  0  0  0  0  0  0  0  0  0  0  0
  138.1510  137.3060  150.4860 C   0  0  0  0  0  2  0  0  0  0  0  0
  140.7760  138.2440  153.7980 C   0  0  0  0  0  0  0  0  0  0  0  0
  141.2850  137.7140  152.6040 C   0  0  0  0  0  3  0  0  0  0  0  0
  140.4380  137.4330  151.5280 C   0  0  0  0  0  3  0  0  0  0  0  0
  139.0620  137.6460  151.6320 C   0  0  0  0  0  0  0  0  0  0  0  0
  138.5520  138.1780  152.8240 C   0  0  0  0  0  3  0  0  0  0  0  0
  139.3970  138.4920  153.8970 C   0  0  0  0  0  0  0  0  0  0  0  0
  142.7270  139.2490  154.7090 C   0  0  0  0  0  1  0  0  0  0  0  0
  141.5580  138.4630  154.9020 O   0  0  0  0  0  0  0  0  0  0  0  0
  138.7310  138.9990  154.9850 O   0  0  0  0  0  0  0  0  0  0  0  0
  137.9060  138.0800  155.6930 C   0  0  0  0  0  1  0  0  0  0  0  0
  134.8690  135.3500  150.6800 C   0  0  1  0  0  3  0  0  0  0  0  0
  134.5910  135.9140  152.0020 N   0  0  0  0  0  0  0  0  0  0  0  0
  134.4230  135.1320  153.1160 C   0  0  0  0  0  0  0  0  0  0  0  0
  134.0190  135.9070  154.3450 C   0  0  0  0  0  1  0  0  0  0  0  0
  134.5340  133.9110  153.1010 O   0  0  0  0  0  0  0  0  0  0  0  0
  134.5210  136.8920  152.0950 H   0  0  0  0  0  0  0  0  0  0  0  0
  133.5800  135.3650  149.8230 C   0  0  0  0  0  3  0  0  0  0  0  0
  132.8060  134.0450  149.9240 C   0  0  0  0  0  1  0  0  0  0  0  0
  132.6480  136.5120  150.2350 C   0  0  0  0  0  1  0  0  0  0  0  0
  1  4  1  0  0  0  0
  2 16  1  0  0  0  0
  2  1  1  0  0  0  0
  3  2  2  0  0  0  0
  5  1  1  0  0  0  0
  5  9  1  0  0  0  0
  6 11  1  0  0  0  0
  6 13  1  0  0  0  0
  7  6  2  0  0  0  0
  8  9  2  0  0  0  0
  8  7  1  0  0  0  0
  9 10  1  0  0  0  0
 10 11  2  0  0  0  0
 11 14  1  0  0  0  0
 12 13  1  0  0  0  0
 14 15  1  0  0  0  0
 16 22  1  6  0  0  0
 16 17  1  0  0  0  0
 17 21  1  0  0  0  0
 17 18  1  0  0  0  0
 18 19  1  0  0  0  0
 20 18  2  0  0  0  0
 22 23  1  0  0  0  0
 22 24  1  0  0  0  0
M  END
>  <MODEL>
6

>  <REMARK>
 VINA RESULT:    -6.200      4.293      6.911
 INTER + INTRA:          -9.627
 INTER:                  -8.798
 INTRA:                  -0.828
 UNBOUND:                -0.890
  Name = CHEMBL1312750
  12 active torsions:
  status: ('A' for Active; 'I' for Inactive)
    1  A    between atoms: C_1  and  O_2
    2  A    between atoms: O_2  and  C_3
    3  A    between atoms: C_6  and  C_7
    4  A    between atoms: C_7  and  N_8
    5  A    between atoms: C_9  and  C_11
    6  A    between atoms: C_11  and  N_12
    7  A    between atoms: C_11  and  C_16
    8  A    between atoms: C_13  and  C_14
    9  A    between atoms: C_16  and  C_17
   10  A    between atoms: C_16  and  C_18
   11  A    between atoms: C_20  and  O_21
   12  A    between atoms: O_21  and  C_22
                            x       y       z     vdW  Elec       q    Type
                         _______ _______ _______ _____ _____    ______ ____

>  <TORSDO>
F 7

>  <SCORE>
-6.200

>  <RMSD_LB>
4.293

>  <RMSD_UB>
6.911

$$$$
CHEMBL1312750
 OpenBabel10172500353D

 24 24  0  0  1  0  0  0  0  0999 V2000
  138.1290  137.4400  152.6620 N   0  0  0  0  0  0  0  0  0  0  0  0
  139.0580  138.3510  153.1140 C   0  0  0  0  0  0  0  0  0  0  0  0
  139.7030  139.0830  152.3620 O   0  0  0  0  0  0  0  0  0  0  0  0
  137.7430  136.7990  153.3000 H   0  0  0  0  0  0  0  0  0  0  0  0
  137.7020  137.3930  151.2830 C   0  0  0  0  0  2  0  0  0  0  0  0
  135.0310  134.0870  150.4560 C   0  0  0  0  0  0  0  0  0  0  0  0
  135.9340  134.5430  149.4860 C   0  0  0  0  0  3  0  0  0  0  0  0
  136.8120  135.5950  149.7630 C   0  0  0  0  0  3  0  0  0  0  0  0
  136.7840  136.2360  151.0040 C   0  0  0  0  0  0  0  0  0  0  0  0
  135.8840  135.7800  151.9750 C   0  0  0  0  0  3  0  0  0  0  0  0
  135.0220  134.7050  151.7180 C   0  0  0  0  0  0  0  0  0  0  0  0
  133.7430  132.9130  148.8420 C   0  0  0  0  0  1  0  0  0  0  0  0
  134.1040  133.1110  150.2030 O   0  0  0  0  0  0  0  0  0  0  0  0
  134.2060  134.3940  152.7780 O   0  0  0  0  0  0  0  0  0  0  0  0
  133.9800  135.4400  153.7160 C   0  0  0  0  0  1  0  0  0  0  0  0
  139.2520  138.3440  154.6480 C   0  0  1  0  0  3  0  0  0  0  0  0
  138.3250  137.3680  155.2230 N   0  0  0  0  0  0  0  0  0  0  0  0
  137.1700  137.7350  155.8650 C   0  0  0  0  0  0  0  0  0  0  0  0
  136.4310  136.5800  156.4900 C   0  0  0  0  0  1  0  0  0  0  0  0
  136.8030  138.9010  155.9690 O   0  0  0  0  0  0  0  0  0  0  0  0
  138.5400  136.4100  155.1460 H   0  0  0  0  0  0  0  0  0  0  0  0
  140.7040  137.9820  155.0390 C   0  0  0  0  0  3  0  0  0  0  0  0
  141.6240  139.2090  155.0440 C   0  0  0  0  0  1  0  0  0  0  0  0
  140.7620  137.3210  156.4240 C   0  0  0  0  0  1  0  0  0  0  0  0
  1  2  1  0  0  0  0
  1  4  1  0  0  0  0
  3  2  2  0  0  0  0
  5  1  1  0  0  0  0
  6 11  1  0  0  0  0
  7  8  1  0  0  0  0
  7  6  2  0  0  0  0
  8  9  2  0  0  0  0
  9  5  1  0  0  0  0
  9 10  1  0  0  0  0
 11 10  2  0  0  0  0
 11 14  1  0  0  0  0
 12 13  1  0  0  0  0
 13  6  1  0  0  0  0
 14 15  1  0  0  0  0
 16  2  1  6  0  0  0
 16 22  1  0  0  0  0
 16 17  1  0  0  0  0
 17 18  1  0  0  0  0
 18 20  2  0  0  0  0
 18 19  1  0  0  0  0
 21 17  1  0  0  0  0
 22 23  1  0  0  0  0
 22 24  1  0  0  0  0
M  END
>  <MODEL>
7

>  <REMARK>
 VINA RESULT:    -6.082      4.617      9.657
 INTER + INTRA:          -9.461
 INTER:                  -8.836
 INTRA:                  -0.625
 UNBOUND:                -0.890
  Name = CHEMBL1312750
  12 active torsions:
  status: ('A' for Active; 'I' for Inactive)
    1  A    between atoms: C_1  and  O_2
    2  A    between atoms: O_2  and  C_3
    3  A    between atoms: C_6  and  C_7
    4  A    between atoms: C_7  and  N_8
    5  A    between atoms: C_9  and  C_11
    6  A    between atoms: C_11  and  N_12
    7  A    between atoms: C_11  and  C_16
    8  A    between atoms: C_13  and  C_14
    9  A    between atoms: C_16  and  C_17
   10  A    between atoms: C_16  and  C_18
   11  A    between atoms: C_20  and  O_21
   12  A    between atoms: O_21  and  C_22
                            x       y       z     vdW  Elec       q    Type
                         _______ _______ _______ _____ _____    ______ ____

>  <TORSDO>
F 7

>  <SCORE>
-6.082

>  <RMSD_LB>
4.617

>  <RMSD_UB>
9.657

$$$$
CHEMBL1312750
 OpenBabel10172500353D

 24 24  0  0  1  0  0  0  0  0999 V2000
  142.5120  138.9880  153.8830 N   0  0  0  0  0  0  0  0  0  0  0  0
  143.8200  139.2900  154.1920 C   0  0  0  0  0  0  0  0  0  0  0  0
  144.1820  139.6370  155.3170 O   0  0  0  0  0  0  0  0  0  0  0  0
  142.2690  138.8430  152.9400 H   0  0  0  0  0  0  0  0  0  0  0  0
  141.4860  138.8780  154.8920 C   0  0  0  0  0  2  0  0  0  0  0  0
  137.7540  137.3590  153.3080 C   0  0  0  0  0  0  0  0  0  0  0  0
  138.7850  137.7710  152.4520 C   0  0  0  0  0  3  0  0  0  0  0  0
  139.9980  138.2390  152.9650 C   0  0  0  0  0  3  0  0  0  0  0  0
  140.1950  138.3360  154.3450 C   0  0  0  0  0  0  0  0  0  0  0  0
  139.1660  137.9240  155.2020 C   0  0  0  0  0  3  0  0  0  0  0  0
  137.9590  137.4220  154.6960 C   0  0  0  0  0  0  0  0  0  0  0  0
  136.5120  136.1360  151.6940 C   0  0  0  0  0  1  0  0  0  0  0  0
  136.5240  136.9650  152.8490 O   0  0  0  0  0  0  0  0  0  0  0  0
  137.0630  137.0690  155.6750 O   0  0  0  0  0  0  0  0  0  0  0  0
  137.5490  136.1750  156.6700 C   0  0  0  0  0  1  0  0  0  0  0  0
  144.7900  139.1970  152.9910 C   0  0  1  0  0  3  0  0  0  0  0  0
  145.2550  140.5480  152.6730 N   0  0  0  0  0  0  0  0  0  0  0  0
  144.8950  141.2000  151.5210 C   0  0  0  0  0  0  0  0  0  0  0  0
  145.5880  142.5260  151.3330 C   0  0  0  0  0  1  0  0  0  0  0  0
  144.1240  140.7230  150.6940 O   0  0  0  0  0  0  0  0  0  0  0  0
  145.8510  141.0050  153.3090 H   0  0  0  0  0  0  0  0  0  0  0  0
  146.0000  138.2860  153.3030 C   0  0  0  0  0  3  0  0  0  0  0  0
  145.5690  136.8680  153.6980 C   0  0  0  0  0  1  0  0  0  0  0  0
  146.9540  138.1910  152.1040 C   0  0  0  0  0  1  0  0  0  0  0  0
  1  2  1  0  0  0  0
  1  5  1  0  0  0  0
  2  3  2  0  0  0  0
  4  1  1  0  0  0  0
  6 11  1  0  0  0  0
  7  8  1  0  0  0  0
  7  6  2  0  0  0  0
  8  9  2  0  0  0  0
  9  5  1  0  0  0  0
  9 10  1  0  0  0  0
 11 10  2  0  0  0  0
 11 14  1  0  0  0  0
 12 13  1  0  0  0  0
 13  6  1  0  0  0  0
 14 15  1  0  0  0  0
 16 22  1  1  0  0  0
 16  2  1  0  0  0  0
 17 16  1  0  0  0  0
 17 21  1  0  0  0  0
 18 17  1  0  0  0  0
 19 18  1  0  0  0  0
 20 18  2  0  0  0  0
 22 23  1  0  0  0  0
 24 22  1  0  0  0  0
M  END
>  <MODEL>
8

>  <REMARK>
 VINA RESULT:    -6.076      2.819      7.710
 INTER + INTRA:          -9.452
 INTER:                  -8.779
 INTRA:                  -0.673
 UNBOUND:                -0.890
  Name = CHEMBL1312750
  12 active torsions:
  status: ('A' for Active; 'I' for Inactive)
    1  A    between atoms: C_1  and  O_2
    2  A    between atoms: O_2  and  C_3
    3  A    between atoms: C_6  and  C_7
    4  A    between atoms: C_7  and  N_8
    5  A    between atoms: C_9  and  C_11
    6  A    between atoms: C_11  and  N_12
    7  A    between atoms: C_11  and  C_16
    8  A    between atoms: C_13  and  C_14
    9  A    between atoms: C_16  and  C_17
   10  A    between atoms: C_16  and  C_18
   11  A    between atoms: C_20  and  O_21
   12  A    between atoms: O_21  and  C_22
                            x       y       z     vdW  Elec       q    Type
                         _______ _______ _______ _____ _____    ______ ____

>  <TORSDO>
F 7

>  <SCORE>
-6.076

>  <RMSD_LB>
2.819

>  <RMSD_UB>
7.710

$$$$
CHEMBL1312750
 OpenBabel10172500353D

 24 24  0  0  1  0  0  0  0  0999 V2000
  146.0300  138.5880  153.2190 N   0  0  0  0  0  0  0  0  0  0  0  0
  146.2330  139.9480  153.1380 C   0  0  0  0  0  0  0  0  0  0  0  0
  145.5520  140.7670  153.7570 O   0  0  0  0  0  0  0  0  0  0  0  0
  146.5210  137.9970  152.6040 H   0  0  0  0  0  0  0  0  0  0  0  0
  145.1210  137.9980  154.1730 C   0  0  0  0  0  2  0  0  0  0  0  0
  141.0520  137.9050  152.6980 C   0  0  0  0  0  0  0  0  0  0  0  0
  142.1070  137.3920  151.9320 C   0  0  0  0  0  3  0  0  0  0  0  0
  143.4170  137.4020  152.4190 C   0  0  0  0  0  3  0  0  0  0  0  0
  143.7050  137.9530  153.6700 C   0  0  0  0  0  0  0  0  0  0  0  0
  142.6520  138.4650  154.4380 C   0  0  0  0  0  3  0  0  0  0  0  0
  141.3300  138.4290  153.9710 C   0  0  0  0  0  0  0  0  0  0  0  0
  139.5850  138.6310  150.9770 C   0  0  0  0  0  1  0  0  0  0  0  0
  139.7660  137.9830  152.2290 O   0  0  0  0  0  0  0  0  0  0  0  0
  140.4270  138.9750  154.8490 O   0  0  0  0  0  0  0  0  0  0  0  0
  139.7880  138.0610  155.7340 C   0  0  0  0  0  1  0  0  0  0  0  0
  147.3640  140.3600  152.1680 C   0  0  1  0  0  3  0  0  0  0  0  0
  146.7800  140.5550  150.8400 N   0  0  0  0  0  0  0  0  0  0  0  0
  146.6080  139.5240  149.9510 C   0  0  0  0  0  0  0  0  0  0  0  0
  146.1100  139.9660  148.5990 C   0  0  0  0  0  1  0  0  0  0  0  0
  146.8880  138.3590  150.2150 O   0  0  0  0  0  0  0  0  0  0  0  0
  146.5010  141.4600  150.5740 H   0  0  0  0  0  0  0  0  0  0  0  0
  148.0650  141.6610  152.6270 C   0  0  0  0  0  3  0  0  0  0  0  0
  148.9230  141.4430  153.8800 C   0  0  0  0  0  1  0  0  0  0  0  0
  148.9560  142.2370  151.5180 C   0  0  0  0  0  1  0  0  0  0  0  0
  1  5  1  0  0  0  0
  2  1  1  0  0  0  0
  2  3  2  0  0  0  0
  4  1  1  0  0  0  0
  6 11  1  0  0  0  0
  7  8  1  0  0  0  0
  7  6  2  0  0  0  0
  8  9  2  0  0  0  0
  9  5  1  0  0  0  0
  9 10  1  0  0  0  0
 11 10  2  0  0  0  0
 11 14  1  0  0  0  0
 12 13  1  0  0  0  0
 13  6  1  0  0  0  0
 14 15  1  0  0  0  0
 16 22  1  1  0  0  0
 16  2  1  0  0  0  0
 17 16  1  0  0  0  0
 18 20  2  0  0  0  0
 18 17  1  0  0  0  0
 19 18  1  0  0  0  0
 21 17  1  0  0  0  0
 22 23  1  0  0  0  0
 24 22  1  0  0  0  0
M  END
>  <MODEL>
9

>  <REMARK>
 VINA RESULT:    -5.895      2.884      7.266
 INTER + INTRA:          -9.198
 INTER:                  -8.308
 INTRA:                  -0.890
 UNBOUND:                -0.890
  Name = CHEMBL1312750
  12 active torsions:
  status: ('A' for Active; 'I' for Inactive)
    1  A    between atoms: C_1  and  O_2
    2  A    between atoms: O_2  and  C_3
    3  A    between atoms: C_6  and  C_7
    4  A    between atoms: C_7  and  N_8
    5  A    between atoms: C_9  and  C_11
    6  A    between atoms: C_11  and  N_12
    7  A    between atoms: C_11  and  C_16
    8  A    between atoms: C_13  and  C_14
    9  A    between atoms: C_16  and  C_17
   10  A    between atoms: C_16  and  C_18
   11  A    between atoms: C_20  and  O_21
   12  A    between atoms: O_21  and  C_22
                            x       y       z     vdW  Elec       q    Type
                         _______ _______ _______ _____ _____    ______ ____

>  <TORSDO>
F 7

>  <SCORE>
-5.895

>  <RMSD_LB>
2.884

>  <RMSD_UB>
7.266

$$$$
