CHEMBL5272412
 OpenBabel10162523373D

 25 26  0  0  1  0  0  0  0  0999 V2000
  138.9450  137.5840  156.1870 N   0  0  0  0  0  0  0  0  0  0  0  0
  139.6140  138.3620  155.2660 C   0  0  0  0  0  0  0  0  0  0  0  0
  139.1060  139.3360  154.7270 O   0  0  0  0  0  0  0  0  0  0  0  0
  139.4330  136.8880  156.6820 H   0  0  0  0  0  0  0  0  0  0  0  0
  137.5230  137.7830  156.4330 C   0  0  0  0  0  2  0  0  0  0  0  0
  135.5860  135.6340  153.9120 C   0  0  0  0  0  0  0  0  0  0  0  0
  136.4960  136.5590  154.4450 C   0  0  0  0  0  3  0  0  0  0  0  0
  136.6600  136.6870  155.8450 C   0  0  0  0  0  0  0  0  0  0  0  0
  135.9740  135.8050  156.6940 C   0  0  0  0  0  3  0  0  0  0  0  0
  135.0990  134.8550  156.1720 C   0  0  0  0  0  3  0  0  0  0  0  0
  134.8880  134.7950  154.7960 C   0  0  0  0  0  0  0  0  0  0  0  0
  136.0870  134.7480  151.7200 C   0  0  0  0  0  1  0  0  0  0  0  0
  135.2540  135.5020  152.5890 O   0  0  0  0  0  0  0  0  0  0  0  0
  133.9420  133.9380  154.2970 O   0  0  0  0  0  0  0  0  0  0  0  0
  133.2770  134.2580  153.7200 H   0  0  0  0  0  0  0  0  0  0  0  0
  141.0200  137.9020  154.9100 C   0  0  0  0  0  2  0  0  0  0  0  0
  141.9890  139.0820  154.7390 C   0  0  0  0  0  2  0  0  0  0  0  0
  143.0020  138.9020  153.5950 C   0  0  0  0  0  2  0  0  0  0  0  0
  144.4370  138.8530  154.1170 C   0  0  0  0  0  2  0  0  0  0  0  0
  145.4720  138.7880  153.0330 C   0  0  2  0  0  3  0  0  0  0  0  0
  146.8110  138.9630  153.5380 O   0  0  0  0  0  0  0  0  0  0  0  0
  146.3540  139.9700  152.6420 C   0  0  2  0  0  3  0  0  0  0  0  0
  146.1690  141.3340  153.2510 C   0  0  0  0  0  3  0  0  0  0  0  0
  147.3900  141.8230  154.0210 C   0  0  0  0  0  1  0  0  0  0  0  0
  145.8910  142.3220  152.1520 C   0  0  0  0  0  1  0  0  0  0  0  0
  1  5  1  0  0  0  0
  1  4  1  0  0  0  0
  2  1  1  0  0  0  0
  3  2  2  0  0  0  0
  6  7  2  0  0  0  0
  6 11  1  0  0  0  0
  7  8  1  0  0  0  0
  8  5  1  0  0  0  0
  8  9  2  0  0  0  0
 10  9  1  0  0  0  0
 11 10  2  0  0  0  0
 12 13  1  0  0  0  0
 13  6  1  0  0  0  0
 14 11  1  0  0  0  0
 15 14  1  0  0  0  0
 16  2  1  0  0  0  0
 17 16  1  0  0  0  0
 18 19  1  0  0  0  0
 18 17  1  0  0  0  0
 20 21  1  0  0  0  0
 20 19  1  1  0  0  0
 22 20  1  0  0  0  0
 22 23  1  1  0  0  0
 22 21  1  0  0  0  0
 23 24  1  0  0  0  0
 25 23  1  0  0  0  0
M  END
>  <MODEL>
1

>  <REMARK>
 VINA RESULT:    -6.434      0.000      0.000
 INTER + INTRA:         -10.677
 INTER:                  -9.966
 INTRA:                  -0.712
 UNBOUND:                -0.669
  Name = CHEMBL5272412
  13 active torsions:
  status: ('A' for Active; 'I' for Inactive)
    1  A    between atoms: C_1  and  O_2
    2  A    between atoms: O_2  and  C_3
    3  A    between atoms: C_5  and  C_6
    4  A    between atoms: C_6  and  N_7
    5  A    between atoms: C_8  and  C_10
    6  A    between atoms: C_10  and  C_11
    7  A    between atoms: C_11  and  C_12
    8  A    between atoms: C_12  and  C_13
    9  A    between atoms: C_13  and  C_14
   10  A    between atoms: C_16  and  C_17
   11  A    between atoms: C_17  and  C_18
   12  A    between atoms: C_17  and  C_19
   13  A    between atoms: C_22  and  O_23
                            x       y       z     vdW  Elec       q    Type
                         _______ _______ _______ _____ _____    ______ ____

>  <TORSDO>
F 10

>  <SCORE>
-6.434

>  <RMSD_LB>
0.000

>  <RMSD_UB>
0.000

$$$$
CHEMBL5272412
 OpenBabel10162523373D

 25 26  0  0  1  0  0  0  0  0999 V2000
  138.8680  137.5860  155.2680 N   0  0  0  0  0  0  0  0  0  0  0  0
  139.7940  138.5760  155.0220 C   0  0  0  0  0  0  0  0  0  0  0  0
  139.4910  139.6690  154.5620 O   0  0  0  0  0  0  0  0  0  0  0  0
  139.1400  136.7730  155.7500 H   0  0  0  0  0  0  0  0  0  0  0  0
  137.4880  137.7330  154.8220 C   0  0  0  0  0  2  0  0  0  0  0  0
  134.7420  135.0550  154.9300 C   0  0  0  0  0  0  0  0  0  0  0  0
  135.6730  135.9820  154.4400 C   0  0  0  0  0  3  0  0  0  0  0  0
  136.5850  136.6220  155.3130 C   0  0  0  0  0  0  0  0  0  0  0  0
  136.6130  136.2420  156.6640 C   0  0  0  0  0  3  0  0  0  0  0  0
  135.7190  135.2920  157.1530 C   0  0  0  0  0  3  0  0  0  0  0  0
  134.7750  134.7300  156.2950 C   0  0  0  0  0  0  0  0  0  0  0  0
  133.6190  134.7210  152.8150 C   0  0  0  0  0  1  0  0  0  0  0  0
  133.7380  134.4640  154.2080 O   0  0  0  0  0  0  0  0  0  0  0  0
  133.8250  133.8830  156.8040 O   0  0  0  0  0  0  0  0  0  0  0  0
  132.9160  134.0730  156.6880 H   0  0  0  0  0  0  0  0  0  0  0  0
  141.2440  138.2090  155.3020 C   0  0  0  0  0  2  0  0  0  0  0  0
  142.2210  139.2800  154.7910 C   0  0  0  0  0  2  0  0  0  0  0  0
  142.8630  138.9470  153.4330 C   0  0  0  0  0  2  0  0  0  0  0  0
  142.5000  137.5380  152.9690 C   0  0  0  0  0  2  0  0  0  0  0  0
  142.3740  137.4070  151.4800 C   0  0  2  0  0  3  0  0  0  0  0  0
  142.2070  138.6810  150.8260 O   0  0  0  0  0  0  0  0  0  0  0  0
  141.1120  137.7790  150.7070 C   0  0  2  0  0  3  0  0  0  0  0  0
  139.8500  138.2060  151.4080 C   0  0  0  0  0  3  0  0  0  0  0  0
  139.3630  139.5880  150.9870 C   0  0  0  0  0  1  0  0  0  0  0  0
  138.7610  137.2180  151.0910 C   0  0  0  0  0  1  0  0  0  0  0  0
  1  4  1  0  0  0  0
  2  1  1  0  0  0  0
  2 16  1  0  0  0  0
  3  2  2  0  0  0  0
  5  1  1  0  0  0  0
  5  8  1  0  0  0  0
  6 11  1  0  0  0  0
  7  6  2  0  0  0  0
  7  8  1  0  0  0  0
  8  9  2  0  0  0  0
  9 10  1  0  0  0  0
 11 14  1  0  0  0  0
 11 10  2  0  0  0  0
 12 13  1  0  0  0  0
 13  6  1  0  0  0  0
 15 14  1  0  0  0  0
 17 16  1  0  0  0  0
 18 17  1  0  0  0  0
 19 18  1  0  0  0  0
 20 19  1  1  0  0  0
 21 20  1  0  0  0  0
 22 21  1  0  0  0  0
 22 23  1  1  0  0  0
 22 20  1  0  0  0  0
 24 23  1  0  0  0  0
 25 23  1  0  0  0  0
M  END
>  <MODEL>
2

>  <REMARK>
 VINA RESULT:    -6.363      2.472      3.770
 INTER + INTRA:         -10.566
 INTER:                  -9.453
 INTRA:                  -1.113
 UNBOUND:                -0.669
  Name = CHEMBL5272412
  13 active torsions:
  status: ('A' for Active; 'I' for Inactive)
    1  A    between atoms: C_1  and  O_2
    2  A    between atoms: O_2  and  C_3
    3  A    between atoms: C_5  and  C_6
    4  A    between atoms: C_6  and  N_7
    5  A    between atoms: C_8  and  C_10
    6  A    between atoms: C_10  and  C_11
    7  A    between atoms: C_11  and  C_12
    8  A    between atoms: C_12  and  C_13
    9  A    between atoms: C_13  and  C_14
   10  A    between atoms: C_16  and  C_17
   11  A    between atoms: C_17  and  C_18
   12  A    between atoms: C_17  and  C_19
   13  A    between atoms: C_22  and  O_23
                            x       y       z     vdW  Elec       q    Type
                         _______ _______ _______ _____ _____    ______ ____

>  <TORSDO>
F 10

>  <SCORE>
-6.363

>  <RMSD_LB>
2.472

>  <RMSD_UB>
3.770

$$$$
CHEMBL5272412
 OpenBabel10162523373D

 25 26  0  0  1  0  0  0  0  0999 V2000
  138.3370  137.4670  151.3370 N   0  0  0  0  0  0  0  0  0  0  0  0
  139.1030  138.5510  150.9660 C   0  0  0  0  0  0  0  0  0  0  0  0
  139.1180  138.9940  149.8260 O   0  0  0  0  0  0  0  0  0  0  0  0
  138.2640  137.2250  152.2880 H   0  0  0  0  0  0  0  0  0  0  0  0
  137.6320  136.6790  150.3350 C   0  0  0  0  0  2  0  0  0  0  0  0
  134.3980  134.6230  150.5380 C   0  0  0  0  0  0  0  0  0  0  0  0
  135.5990  135.1650  150.0560 C   0  0  0  0  0  3  0  0  0  0  0  0
  136.4170  135.9660  150.8880 C   0  0  0  0  0  0  0  0  0  0  0  0
  136.0620  136.1300  152.2350 C   0  0  0  0  0  3  0  0  0  0  0  0
  134.8910  135.5640  152.7350 C   0  0  0  0  0  3  0  0  0  0  0  0
  134.0570  134.8430  151.8820 C   0  0  0  0  0  0  0  0  0  0  0  0
  133.0480  134.4460  148.5410 C   0  0  0  0  0  1  0  0  0  0  0  0
  133.4700  133.9370  149.7990 O   0  0  0  0  0  0  0  0  0  0  0  0
  132.8520  134.3850  152.3490 O   0  0  0  0  0  0  0  0  0  0  0  0
  132.7030  134.3120  153.2710 H   0  0  0  0  0  0  0  0  0  0  0  0
  139.9880  139.1380  152.0560 C   0  0  0  0  0  2  0  0  0  0  0  0
  140.3040  138.1140  153.1580 C   0  0  0  0  0  2  0  0  0  0  0  0
  140.4320  138.7240  154.5640 C   0  0  0  0  0  2  0  0  0  0  0  0
  139.3750  138.1700  155.5170 C   0  0  0  0  0  2  0  0  0  0  0  0
  137.9900  138.1580  154.9420 C   0  0  2  0  0  3  0  0  0  0  0  0
  137.0580  138.9240  155.7320 O   0  0  0  0  0  0  0  0  0  0  0  0
  136.7920  137.5280  155.6460 C   0  0  2  0  0  3  0  0  0  0  0  0
  136.9410  136.7660  156.9370 C   0  0  0  0  0  3  0  0  0  0  0  0
  136.6080  137.5970  158.1710 C   0  0  0  0  0  1  0  0  0  0  0  0
  136.0120  135.5840  156.9120 C   0  0  0  0  0  1  0  0  0  0  0  0
  1  4  1  0  0  0  0
  2  1  1  0  0  0  0
  2 16  1  0  0  0  0
  3  2  2  0  0  0  0
  5  8  1  0  0  0  0
  5  1  1  0  0  0  0
  6 11  1  0  0  0  0
  7  6  2  0  0  0  0
  7  8  1  0  0  0  0
  8  9  2  0  0  0  0
  9 10  1  0  0  0  0
 11 14  1  0  0  0  0
 11 10  2  0  0  0  0
 12 13  1  0  0  0  0
 13  6  1  0  0  0  0
 14 15  1  0  0  0  0
 16 17  1  0  0  0  0
 17 18  1  0  0  0  0
 18 19  1  0  0  0  0
 20 19  1  1  0  0  0
 20 22  1  0  0  0  0
 20 21  1  0  0  0  0
 22 21  1  0  0  0  0
 22 23  1  1  0  0  0
 23 24  1  0  0  0  0
 25 23  1  0  0  0  0
M  END
>  <MODEL>
3

>  <REMARK>
 VINA RESULT:    -6.292      4.010      6.598
 INTER + INTRA:         -10.456
 INTER:                  -9.293
 INTRA:                  -1.162
 UNBOUND:                -0.669
  Name = CHEMBL5272412
  13 active torsions:
  status: ('A' for Active; 'I' for Inactive)
    1  A    between atoms: C_1  and  O_2
    2  A    between atoms: O_2  and  C_3
    3  A    between atoms: C_5  and  C_6
    4  A    between atoms: C_6  and  N_7
    5  A    between atoms: C_8  and  C_10
    6  A    between atoms: C_10  and  C_11
    7  A    between atoms: C_11  and  C_12
    8  A    between atoms: C_12  and  C_13
    9  A    between atoms: C_13  and  C_14
   10  A    between atoms: C_16  and  C_17
   11  A    between atoms: C_17  and  C_18
   12  A    between atoms: C_17  and  C_19
   13  A    between atoms: C_22  and  O_23
                            x       y       z     vdW  Elec       q    Type
                         _______ _______ _______ _____ _____    ______ ____

>  <TORSDO>
F 10

>  <SCORE>
-6.292

>  <RMSD_LB>
4.010

>  <RMSD_UB>
6.598

$$$$
CHEMBL5272412
 OpenBabel10162523373D

 25 26  0  0  1  0  0  0  0  0999 V2000
  134.7140  135.2630  147.0920 N   0  0  0  0  0  0  0  0  0  0  0  0
  133.4300  135.3780  147.5800 C   0  0  0  0  0  0  0  0  0  0  0  0
  132.6870  136.3020  147.2790 O   0  0  0  0  0  0  0  0  0  0  0  0
  135.2290  134.4420  147.2650 H   0  0  0  0  0  0  0  0  0  0  0  0
  135.3160  136.3440  146.3230 C   0  0  0  0  0  2  0  0  0  0  0  0
  137.0600  137.9580  149.3360 C   0  0  0  0  0  0  0  0  0  0  0  0
  136.4820  136.9950  148.4950 C   0  0  0  0  0  3  0  0  0  0  0  0
  136.0760  137.3310  147.1810 C   0  0  0  0  0  0  0  0  0  0  0  0
  136.3510  138.6180  146.6930 C   0  0  0  0  0  3  0  0  0  0  0  0
  136.9610  139.5700  147.5070 C   0  0  0  0  0  3  0  0  0  0  0  0
  137.2820  139.2470  148.8240 C   0  0  0  0  0  0  0  0  0  0  0  0
  138.5780  137.1080  151.0140 C   0  0  0  0  0  1  0  0  0  0  0  0
  137.3810  137.7860  150.6570 O   0  0  0  0  0  0  0  0  0  0  0  0
  137.7760  140.2190  149.6540 O   0  0  0  0  0  0  0  0  0  0  0  0
  137.2090  140.8880  149.9830 H   0  0  0  0  0  0  0  0  0  0  0  0
  133.0030  134.3090  148.5740 C   0  0  0  0  0  2  0  0  0  0  0  0
  133.3270  134.7050  150.0240 C   0  0  0  0  0  2  0  0  0  0  0  0
  134.6680  134.1540  150.5400 C   0  0  0  0  0  2  0  0  0  0  0  0
  134.6940  134.0750  152.0650 C   0  0  0  0  0  2  0  0  0  0  0  0
  133.7400  135.0190  152.7350 C   0  0  2  0  0  3  0  0  0  0  0  0
  134.3360  136.3030  153.0090 O   0  0  0  0  0  0  0  0  0  0  0  0
  133.9400  135.5520  154.1510 C   0  0  2  0  0  3  0  0  0  0  0  0
  135.0670  135.0730  155.0270 C   0  0  0  0  0  3  0  0  0  0  0  0
  136.1470  136.1250  155.2510 C   0  0  0  0  0  1  0  0  0  0  0  0
  134.5090  134.6920  156.3700 C   0  0  0  0  0  1  0  0  0  0  0  0
  1  4  1  0  0  0  0
  1  2  1  0  0  0  0
  2 16  1  0  0  0  0
  3  2  2  0  0  0  0
  5  1  1  0  0  0  0
  5  8  1  0  0  0  0
  6 13  1  0  0  0  0
  7  6  2  0  0  0  0
  8  7  1  0  0  0  0
  9  8  2  0  0  0  0
  9 10  1  0  0  0  0
 10 11  2  0  0  0  0
 11  6  1  0  0  0  0
 11 14  1  0  0  0  0
 13 12  1  0  0  0  0
 14 15  1  0  0  0  0
 16 17  1  0  0  0  0
 17 18  1  0  0  0  0
 18 19  1  0  0  0  0
 20 19  1  1  0  0  0
 20 21  1  0  0  0  0
 20 22  1  0  0  0  0
 21 22  1  0  0  0  0
 22 23  1  1  0  0  0
 23 24  1  0  0  0  0
 23 25  1  0  0  0  0
M  END
>  <MODEL>
4

>  <REMARK>
 VINA RESULT:    -6.182      5.869     10.254
 INTER + INTRA:         -10.284
 INTER:                  -9.139
 INTRA:                  -1.145
 UNBOUND:                -0.669
  Name = CHEMBL5272412
  13 active torsions:
  status: ('A' for Active; 'I' for Inactive)
    1  A    between atoms: C_1  and  O_2
    2  A    between atoms: O_2  and  C_3
    3  A    between atoms: C_5  and  C_6
    4  A    between atoms: C_6  and  N_7
    5  A    between atoms: C_8  and  C_10
    6  A    between atoms: C_10  and  C_11
    7  A    between atoms: C_11  and  C_12
    8  A    between atoms: C_12  and  C_13
    9  A    between atoms: C_13  and  C_14
   10  A    between atoms: C_16  and  C_17
   11  A    between atoms: C_17  and  C_18
   12  A    between atoms: C_17  and  C_19
   13  A    between atoms: C_22  and  O_23
                            x       y       z     vdW  Elec       q    Type
                         _______ _______ _______ _____ _____    ______ ____

>  <TORSDO>
F 10

>  <SCORE>
-6.182

>  <RMSD_LB>
5.869

>  <RMSD_UB>
10.254

$$$$
CHEMBL5272412
 OpenBabel10162523373D

 25 26  0  0  1  0  0  0  0  0999 V2000
  137.6670  136.2210  150.2780 N   0  0  0  0  0  0  0  0  0  0  0  0
  137.2840  136.6730  149.0340 C   0  0  0  0  0  0  0  0  0  0  0  0
  136.6110  137.6820  148.8740 O   0  0  0  0  0  0  0  0  0  0  0  0
  138.3080  135.4760  150.3500 H   0  0  0  0  0  0  0  0  0  0  0  0
  137.1350  136.8350  151.4880 C   0  0  0  0  0  2  0  0  0  0  0  0
  135.3430  135.1110  154.4110 C   0  0  0  0  0  0  0  0  0  0  0  0
  136.0720  136.0540  153.6710 C   0  0  0  0  0  3  0  0  0  0  0  0
  136.2270  135.9120  152.2710 C   0  0  0  0  0  0  0  0  0  0  0  0
  135.5550  134.8680  151.6150 C   0  0  0  0  0  3  0  0  0  0  0  0
  134.7960  133.9500  152.3360 C   0  0  0  0  0  3  0  0  0  0  0  0
  134.7190  134.0580  153.7230 C   0  0  0  0  0  0  0  0  0  0  0  0
  136.1530  135.7840  156.5860 C   0  0  0  0  0  1  0  0  0  0  0  0
  135.2260  135.0750  155.7760 O   0  0  0  0  0  0  0  0  0  0  0  0
  134.0660  133.0880  154.4380 O   0  0  0  0  0  0  0  0  0  0  0  0
  133.1300  133.0550  154.4390 H   0  0  0  0  0  0  0  0  0  0  0  0
  137.6990  135.8020  147.8580 C   0  0  0  0  0  2  0  0  0  0  0  0
  137.8020  134.3180  148.2460 C   0  0  0  0  0  2  0  0  0  0  0  0
  137.7230  133.3500  147.0530 C   0  0  0  0  0  2  0  0  0  0  0  0
  136.4170  133.5170  146.2780 C   0  0  0  0  0  2  0  0  0  0  0  0
  135.2300  132.8990  146.9560 C   0  0  2  0  0  3  0  0  0  0  0  0
  133.9980  133.1550  146.2520 O   0  0  0  0  0  0  0  0  0  0  0  0
  134.0880  133.7130  147.5580 C   0  0  2  0  0  3  0  0  0  0  0  0
  134.1290  135.2170  147.6120 C   0  0  0  0  0  3  0  0  0  0  0  0
  133.5130  135.8820  146.3870 C   0  0  0  0  0  1  0  0  0  0  0  0
  133.3630  135.6800  148.8210 C   0  0  0  0  0  1  0  0  0  0  0  0
  1  4  1  0  0  0  0
  1  5  1  0  0  0  0
  2  1  1  0  0  0  0
  3  2  2  0  0  0  0
  5  8  1  0  0  0  0
  6 13  1  0  0  0  0
  7  6  2  0  0  0  0
  8  7  1  0  0  0  0
  9  8  2  0  0  0  0
  9 10  1  0  0  0  0
 10 11  2  0  0  0  0
 11  6  1  0  0  0  0
 11 14  1  0  0  0  0
 13 12  1  0  0  0  0
 14 15  1  0  0  0  0
 16 17  1  0  0  0  0
 16  2  1  0  0  0  0
 18 17  1  0  0  0  0
 19 18  1  0  0  0  0
 20 19  1  6  0  0  0
 20 22  1  0  0  0  0
 21 20  1  0  0  0  0
 21 22  1  0  0  0  0
 22 23  1  6  0  0  0
 23 25  1  0  0  0  0
 24 23  1  0  0  0  0
M  END
>  <MODEL>
5

>  <REMARK>
 VINA RESULT:    -6.177      6.388      9.344
 INTER + INTRA:         -10.278
 INTER:                  -8.721
 INTRA:                  -1.557
 UNBOUND:                -0.669
  Name = CHEMBL5272412
  13 active torsions:
  status: ('A' for Active; 'I' for Inactive)
    1  A    between atoms: C_1  and  O_2
    2  A    between atoms: O_2  and  C_3
    3  A    between atoms: C_5  and  C_6
    4  A    between atoms: C_6  and  N_7
    5  A    between atoms: C_8  and  C_10
    6  A    between atoms: C_10  and  C_11
    7  A    between atoms: C_11  and  C_12
    8  A    between atoms: C_12  and  C_13
    9  A    between atoms: C_13  and  C_14
   10  A    between atoms: C_16  and  C_17
   11  A    between atoms: C_17  and  C_18
   12  A    between atoms: C_17  and  C_19
   13  A    between atoms: C_22  and  O_23
                            x       y       z     vdW  Elec       q    Type
                         _______ _______ _______ _____ _____    ______ ____

>  <TORSDO>
F 10

>  <SCORE>
-6.177

>  <RMSD_LB>
6.388

>  <RMSD_UB>
9.344

$$$$
CHEMBL5272412
 OpenBabel10162523373D

 25 26  0  0  1  0  0  0  0  0999 V2000
  134.9320  133.9470  147.8840 N   0  0  0  0  0  0  0  0  0  0  0  0
  135.0210  132.5930  147.6380 C   0  0  0  0  0  0  0  0  0  0  0  0
  134.2450  131.7790  148.1190 O   0  0  0  0  0  0  0  0  0  0  0  0
  135.5010  134.5720  147.3800 H   0  0  0  0  0  0  0  0  0  0  0  0
  134.0030  134.4600  148.8820 C   0  0  0  0  0  2  0  0  0  0  0  0
  134.5790  135.9020  152.3910 C   0  0  0  0  0  0  0  0  0  0  0  0
  133.9520  135.3040  151.2880 C   0  0  0  0  0  3  0  0  0  0  0  0
  134.6930  134.9620  150.1320 C   0  0  0  0  0  0  0  0  0  0  0  0
  136.0850  135.1360  150.1410 C   0  0  0  0  0  3  0  0  0  0  0  0
  136.7240  135.6920  151.2470 C   0  0  0  0  0  3  0  0  0  0  0  0
  135.9690  136.0970  152.3460 C   0  0  0  0  0  0  0  0  0  0  0  0
  133.6990  135.5190  154.6100 C   0  0  0  0  0  1  0  0  0  0  0  0
  133.9530  136.3840  153.5110 O   0  0  0  0  0  0  0  0  0  0  0  0
  136.5870  136.7460  153.3840 O   0  0  0  0  0  0  0  0  0  0  0  0
  137.4120  137.1690  153.2480 H   0  0  0  0  0  0  0  0  0  0  0  0
  136.1920  132.1560  146.7700 C   0  0  0  0  0  2  0  0  0  0  0  0
  136.0330  132.6150  145.3110 C   0  0  0  0  0  2  0  0  0  0  0  0
  136.1870  131.4860  144.2780 C   0  0  0  0  0  2  0  0  0  0  0  0
  136.5890  132.0280  142.9070 C   0  0  0  0  0  2  0  0  0  0  0  0
  137.7320  132.9980  142.9530 C   0  0  2  0  0  3  0  0  0  0  0  0
  137.3380  134.3320  142.5760 O   0  0  0  0  0  0  0  0  0  0  0  0
  138.2850  133.7040  141.7190 C   0  0  2  0  0  3  0  0  0  0  0  0
  137.7870  133.3870  140.3340 C   0  0  0  0  0  3  0  0  0  0  0  0
  136.8520  134.4510  139.7710 C   0  0  0  0  0  1  0  0  0  0  0  0
  138.9670  133.2740  139.4090 C   0  0  0  0  0  1  0  0  0  0  0  0
  1  5  1  0  0  0  0
  2  1  1  0  0  0  0
  2  3  2  0  0  0  0
  4  1  1  0  0  0  0
  5  8  1  0  0  0  0
  6 13  1  0  0  0  0
  7  6  2  0  0  0  0
  8  9  2  0  0  0  0
  8  7  1  0  0  0  0
  9 10  1  0  0  0  0
 10 11  2  0  0  0  0
 11  6  1  0  0  0  0
 11 14  1  0  0  0  0
 13 12  1  0  0  0  0
 15 14  1  0  0  0  0
 16  2  1  0  0  0  0
 17 16  1  0  0  0  0
 18 17  1  0  0  0  0
 19 18  1  0  0  0  0
 20 19  1  6  0  0  0
 21 20  1  0  0  0  0
 22 23  1  6  0  0  0
 22 21  1  0  0  0  0
 22 20  1  0  0  0  0
 24 23  1  0  0  0  0
 25 23  1  0  0  0  0
M  END
>  <MODEL>
6

>  <REMARK>
 VINA RESULT:    -5.997      7.099     11.252
 INTER + INTRA:          -9.998
 INTER:                  -9.328
 INTRA:                  -0.669
 UNBOUND:                -0.669
  Name = CHEMBL5272412
  13 active torsions:
  status: ('A' for Active; 'I' for Inactive)
    1  A    between atoms: C_1  and  O_2
    2  A    between atoms: O_2  and  C_3
    3  A    between atoms: C_5  and  C_6
    4  A    between atoms: C_6  and  N_7
    5  A    between atoms: C_8  and  C_10
    6  A    between atoms: C_10  and  C_11
    7  A    between atoms: C_11  and  C_12
    8  A    between atoms: C_12  and  C_13
    9  A    between atoms: C_13  and  C_14
   10  A    between atoms: C_16  and  C_17
   11  A    between atoms: C_17  and  C_18
   12  A    between atoms: C_17  and  C_19
   13  A    between atoms: C_22  and  O_23
                            x       y       z     vdW  Elec       q    Type
                         _______ _______ _______ _____ _____    ______ ____

>  <TORSDO>
F 10

>  <SCORE>
-5.997

>  <RMSD_LB>
7.099

>  <RMSD_UB>
11.252

$$$$
CHEMBL5272412
 OpenBabel10162523373D

 25 26  0  0  1  0  0  0  0  0999 V2000
  134.2590  137.6880  147.3470 N   0  0  0  0  0  0  0  0  0  0  0  0
  133.8940  137.7680  146.0200 C   0  0  0  0  0  0  0  0  0  0  0  0
  132.8090  137.3810  145.6060 O   0  0  0  0  0  0  0  0  0  0  0  0
  135.0880  138.1220  147.6510 H   0  0  0  0  0  0  0  0  0  0  0  0
  133.4270  136.9690  148.3040 C   0  0  0  0  0  2  0  0  0  0  0  0
  135.2480  133.6200  147.8650 C   0  0  0  0  0  0  0  0  0  0  0  0
  134.9990  135.0000  147.9100 C   0  0  0  0  0  3  0  0  0  0  0  0
  133.7640  135.4970  148.3930 C   0  0  0  0  0  0  0  0  0  0  0  0
  132.8280  134.5950  148.9210 C   0  0  0  0  0  3  0  0  0  0  0  0
  133.0820  133.2250  148.9180 C   0  0  0  0  0  3  0  0  0  0  0  0
  134.2690  132.7460  148.3660 C   0  0  0  0  0  0  0  0  0  0  0  0
  137.2660  133.7850  146.5460 C   0  0  0  0  0  1  0  0  0  0  0  0
  136.3480  133.0180  147.3120 O   0  0  0  0  0  0  0  0  0  0  0  0
  134.4650  131.3940  148.2620 O   0  0  0  0  0  0  0  0  0  0  0  0
  134.0280  130.8100  148.8500 H   0  0  0  0  0  0  0  0  0  0  0  0
  134.9530  138.3160  145.0750 C   0  0  0  0  0  2  0  0  0  0  0  0
  135.9660  139.2150  145.8030 C   0  0  0  0  0  2  0  0  0  0  0  0
  137.4110  138.6880  145.7660 C   0  0  0  0  0  2  0  0  0  0  0  0
  137.8660  138.1940  147.1380 C   0  0  0  0  0  2  0  0  0  0  0  0
  137.6550  139.1900  148.2390 C   0  0  2  0  0  3  0  0  0  0  0  0
  138.8810  139.5290  148.9180 O   0  0  0  0  0  0  0  0  0  0  0  0
  137.8960  138.8770  149.7130 C   0  0  2  0  0  3  0  0  0  0  0  0
  138.2630  137.4930  150.1800 C   0  0  0  0  0  3  0  0  0  0  0  0
  139.5220  137.4590  151.0390 C   0  0  0  0  0  1  0  0  0  0  0  0
  137.1300  136.9430  151.0020 C   0  0  0  0  0  1  0  0  0  0  0  0
  1  4  1  0  0  0  0
  1  5  1  0  0  0  0
  2  1  1  0  0  0  0
  3  2  2  0  0  0  0
  5  8  1  0  0  0  0
  6  7  2  0  0  0  0
  6 11  1  0  0  0  0
  7  8  1  0  0  0  0
  8  9  2  0  0  0  0
 10  9  1  0  0  0  0
 11 10  2  0  0  0  0
 12 13  1  0  0  0  0
 13  6  1  0  0  0  0
 14 11  1  0  0  0  0
 14 15  1  0  0  0  0
 16 17  1  0  0  0  0
 16  2  1  0  0  0  0
 18 17  1  0  0  0  0
 18 19  1  0  0  0  0
 20 19  1  6  0  0  0
 20 21  1  0  0  0  0
 20 22  1  0  0  0  0
 21 22  1  0  0  0  0
 22 23  1  6  0  0  0
 23 25  1  0  0  0  0
 23 24  1  0  0  0  0
M  END
>  <MODEL>
7

>  <REMARK>
 VINA RESULT:    -5.841      6.282      8.933
 INTER + INTRA:          -9.755
 INTER:                  -8.489
 INTRA:                  -1.265
 UNBOUND:                -0.669
  Name = CHEMBL5272412
  13 active torsions:
  status: ('A' for Active; 'I' for Inactive)
    1  A    between atoms: C_1  and  O_2
    2  A    between atoms: O_2  and  C_3
    3  A    between atoms: C_5  and  C_6
    4  A    between atoms: C_6  and  N_7
    5  A    between atoms: C_8  and  C_10
    6  A    between atoms: C_10  and  C_11
    7  A    between atoms: C_11  and  C_12
    8  A    between atoms: C_12  and  C_13
    9  A    between atoms: C_13  and  C_14
   10  A    between atoms: C_16  and  C_17
   11  A    between atoms: C_17  and  C_18
   12  A    between atoms: C_17  and  C_19
   13  A    between atoms: C_22  and  O_23
                            x       y       z     vdW  Elec       q    Type
                         _______ _______ _______ _____ _____    ______ ____

>  <TORSDO>
F 10

>  <SCORE>
-5.841

>  <RMSD_LB>
6.282

>  <RMSD_UB>
8.933

$$$$
CHEMBL5272412
 OpenBabel10162523373D

 25 26  0  0  1  0  0  0  0  0999 V2000
  139.2280  138.3260  150.8430 N   0  0  0  0  0  0  0  0  0  0  0  0
  139.1700  139.3040  149.8740 C   0  0  0  0  0  0  0  0  0  0  0  0
  140.0680  140.1170  149.6970 O   0  0  0  0  0  0  0  0  0  0  0  0
  138.5400  137.6220  150.8660 H   0  0  0  0  0  0  0  0  0  0  0  0
  140.2980  138.3230  151.8320 C   0  0  0  0  0  2  0  0  0  0  0  0
  137.9390  137.9460  154.8350 C   0  0  0  0  0  0  0  0  0  0  0  0
  138.4180  137.9580  153.5170 C   0  0  0  0  0  3  0  0  0  0  0  0
  139.7940  138.1560  153.2490 C   0  0  0  0  0  0  0  0  0  0  0  0
  140.6910  138.2400  154.3260 C   0  0  0  0  0  3  0  0  0  0  0  0
  140.2300  138.1890  155.6390 C   0  0  0  0  0  3  0  0  0  0  0  0
  138.8630  138.0730  155.8850 C   0  0  0  0  0  0  0  0  0  0  0  0
  135.9340  136.6420  155.1810 C   0  0  0  0  0  1  0  0  0  0  0  0
  136.6230  137.8840  155.2130 O   0  0  0  0  0  0  0  0  0  0  0  0
  138.4040  138.1380  157.1750 O   0  0  0  0  0  0  0  0  0  0  0  0
  138.9910  137.9910  157.8900 H   0  0  0  0  0  0  0  0  0  0  0  0
  137.8840  139.3550  149.0630 C   0  0  0  0  0  2  0  0  0  0  0  0
  136.9800  138.1420  149.3350 C   0  0  0  0  0  2  0  0  0  0  0  0
  137.4060  136.8630  148.5930 C   0  0  0  0  0  2  0  0  0  0  0  0
  136.9590  135.6060  149.3360 C   0  0  0  0  0  2  0  0  0  0  0  0
  136.5790  135.8520  150.7660 C   0  0  2  0  0  3  0  0  0  0  0  0
  136.2320  134.6380  151.4620 O   0  0  0  0  0  0  0  0  0  0  0  0
  135.1820  135.5890  151.3210 C   0  0  2  0  0  3  0  0  0  0  0  0
  134.0430  135.1610  150.4340 C   0  0  0  0  0  3  0  0  0  0  0  0
  133.5200  133.7660  150.7530 C   0  0  0  0  0  1  0  0  0  0  0  0
  132.9060  136.1300  150.6050 C   0  0  0  0  0  1  0  0  0  0  0  0
  1  4  1  0  0  0  0
  1  5  1  0  0  0  0
  2  1  1  0  0  0  0
  3  2  2  0  0  0  0
  5  8  1  0  0  0  0
  6 13  1  0  0  0  0
  6 11  1  0  0  0  0
  7  6  2  0  0  0  0
  8  7  1  0  0  0  0
  8  9  2  0  0  0  0
  9 10  1  0  0  0  0
 10 11  2  0  0  0  0
 11 14  1  0  0  0  0
 12 13  1  0  0  0  0
 14 15  1  0  0  0  0
 16 17  1  0  0  0  0
 16  2  1  0  0  0  0
 18 17  1  0  0  0  0
 18 19  1  0  0  0  0
 20 19  1  6  0  0  0
 20 22  1  0  0  0  0
 20 21  1  0  0  0  0
 22 23  1  6  0  0  0
 22 21  1  0  0  0  0
 23 25  1  0  0  0  0
 23 24  1  0  0  0  0
M  END
>  <MODEL>
8

>  <REMARK>
 VINA RESULT:    -5.830      4.008      8.399
 INTER + INTRA:          -9.737
 INTER:                  -8.604
 INTRA:                  -1.133
 UNBOUND:                -0.669
  Name = CHEMBL5272412
  13 active torsions:
  status: ('A' for Active; 'I' for Inactive)
    1  A    between atoms: C_1  and  O_2
    2  A    between atoms: O_2  and  C_3
    3  A    between atoms: C_5  and  C_6
    4  A    between atoms: C_6  and  N_7
    5  A    between atoms: C_8  and  C_10
    6  A    between atoms: C_10  and  C_11
    7  A    between atoms: C_11  and  C_12
    8  A    between atoms: C_12  and  C_13
    9  A    between atoms: C_13  and  C_14
   10  A    between atoms: C_16  and  C_17
   11  A    between atoms: C_17  and  C_18
   12  A    between atoms: C_17  and  C_19
   13  A    between atoms: C_22  and  O_23
                            x       y       z     vdW  Elec       q    Type
                         _______ _______ _______ _____ _____    ______ ____

>  <TORSDO>
F 10

>  <SCORE>
-5.830

>  <RMSD_LB>
4.008

>  <RMSD_UB>
8.399

$$$$
CHEMBL5272412
 OpenBabel10162523373D

 25 26  0  0  1  0  0  0  0  0999 V2000
  139.3330  137.6390  149.8770 N   0  0  0  0  0  0  0  0  0  0  0  0
  139.1120  138.0460  148.5790 C   0  0  0  0  0  0  0  0  0  0  0  0
  139.9210  137.8630  147.6800 O   0  0  0  0  0  0  0  0  0  0  0  0
  138.6060  137.6980  150.5370 H   0  0  0  0  0  0  0  0  0  0  0  0
  140.6340  137.1210  150.2810 C   0  0  0  0  0  2  0  0  0  0  0  0
  140.3850  138.4170  153.8840 C   0  0  0  0  0  0  0  0  0  0  0  0
  140.0190  137.9580  152.6100 C   0  0  0  0  0  3  0  0  0  0  0  0
  140.9960  137.4740  151.7070 C   0  0  0  0  0  0  0  0  0  0  0  0
  142.3260  137.3650  152.1400 C   0  0  0  0  0  3  0  0  0  0  0  0
  142.6940  137.7810  153.4170 C   0  0  0  0  0  3  0  0  0  0  0  0
  141.7340  138.3280  154.2660 C   0  0  0  0  0  0  0  0  0  0  0  0
  138.5290  138.2580  155.4230 C   0  0  0  0  0  1  0  0  0  0  0  0
  139.5530  139.0150  154.7940 O   0  0  0  0  0  0  0  0  0  0  0  0
  142.1200  138.8410  155.4770 O   0  0  0  0  0  0  0  0  0  0  0  0
  142.6020  139.6430  155.5150 H   0  0  0  0  0  0  0  0  0  0  0  0
  137.8120  138.7990  148.3360 C   0  0  0  0  0  2  0  0  0  0  0  0
  136.9630  138.1460  147.2340 C   0  0  0  0  0  2  0  0  0  0  0  0
  135.6090  137.6040  147.7230 C   0  0  0  0  0  2  0  0  0  0  0  0
  135.6630  136.0980  147.9740 C   0  0  0  0  0  2  0  0  0  0  0  0
  135.7060  135.7280  149.4270 C   0  0  2  0  0  3  0  0  0  0  0  0
  136.1860  134.3860  149.6410 O   0  0  0  0  0  0  0  0  0  0  0  0
  134.8420  134.6310  150.0410 C   0  0  2  0  0  3  0  0  0  0  0  0
  133.7920  133.9070  149.2410 C   0  0  0  0  0  3  0  0  0  0  0  0
  134.1940  132.4860  148.8610 C   0  0  0  0  0  1  0  0  0  0  0  0
  132.5310  133.8260  150.0560 C   0  0  0  0  0  1  0  0  0  0  0  0
  1  5  1  0  0  0  0
  1  4  1  0  0  0  0
  2  1  1  0  0  0  0
  3  2  2  0  0  0  0
  5  8  1  0  0  0  0
  6 11  1  0  0  0  0
  6 13  1  0  0  0  0
  7  6  2  0  0  0  0
  8  9  2  0  0  0  0
  8  7  1  0  0  0  0
  9 10  1  0  0  0  0
 10 11  2  0  0  0  0
 11 14  1  0  0  0  0
 13 12  1  0  0  0  0
 14 15  1  0  0  0  0
 16  2  1  0  0  0  0
 17 18  1  0  0  0  0
 17 16  1  0  0  0  0
 18 19  1  0  0  0  0
 20 19  1  6  0  0  0
 20 21  1  0  0  0  0
 20 22  1  0  0  0  0
 21 22  1  0  0  0  0
 22 23  1  6  0  0  0
 23 25  1  0  0  0  0
 24 23  1  0  0  0  0
M  END
>  <MODEL>
9

>  <REMARK>
 VINA RESULT:    -5.789      3.888      9.735
 INTER + INTRA:          -9.673
 INTER:                  -8.829
 INTRA:                  -0.845
 UNBOUND:                -0.669
  Name = CHEMBL5272412
  13 active torsions:
  status: ('A' for Active; 'I' for Inactive)
    1  A    between atoms: C_1  and  O_2
    2  A    between atoms: O_2  and  C_3
    3  A    between atoms: C_5  and  C_6
    4  A    between atoms: C_6  and  N_7
    5  A    between atoms: C_8  and  C_10
    6  A    between atoms: C_10  and  C_11
    7  A    between atoms: C_11  and  C_12
    8  A    between atoms: C_12  and  C_13
    9  A    between atoms: C_13  and  C_14
   10  A    between atoms: C_16  and  C_17
   11  A    between atoms: C_17  and  C_18
   12  A    between atoms: C_17  and  C_19
   13  A    between atoms: C_22  and  O_23
                            x       y       z     vdW  Elec       q    Type
                         _______ _______ _______ _____ _____    ______ ____

>  <TORSDO>
F 10

>  <SCORE>
-5.789

>  <RMSD_LB>
3.888

>  <RMSD_UB>
9.735

$$$$
