CHEMBL310652
 OpenBabel10162523543D

 26 27  0  0  0  0  0  0  0  0999 V2000
  147.0160  137.8110  150.3440 N   0  0  0  0  0  0  0  0  0  0  0  0
  145.8690  137.5330  149.6370 C   0  0  0  0  0  0  0  0  0  0  0  0
  145.2170  136.5050  149.7920 O   0  0  0  0  0  0  0  0  0  0  0  0
  147.5090  138.6420  150.1480 H   0  0  0  0  0  0  0  0  0  0  0  0
  147.5170  136.9200  151.3640 C   0  0  0  0  0  2  0  0  0  0  0  0
  145.9090  138.5060  154.4480 C   0  0  0  0  0  0  0  0  0  0  0  0
  146.1050  138.0290  153.1470 C   0  0  0  0  0  3  0  0  0  0  0  0
  147.3410  137.4700  152.7580 C   0  0  0  0  0  0  0  0  0  0  0  0
  148.3860  137.4240  153.6870 C   0  0  0  0  0  3  0  0  0  0  0  0
  148.2030  137.9020  154.9840 C   0  0  0  0  0  3  0  0  0  0  0  0
  146.9730  138.4330  155.3600 C   0  0  0  0  0  0  0  0  0  0  0  0
  143.7300  139.3450  153.9690 C   0  0  0  0  0  1  0  0  0  0  0  0
  144.7410  139.0390  154.9210 O   0  0  0  0  0  0  0  0  0  0  0  0
  146.7950  138.8940  156.6360 O   0  0  0  0  0  0  0  0  0  0  0  0
  146.8690  138.3060  157.3620 H   0  0  0  0  0  0  0  0  0  0  0  0
  145.5170  138.5880  148.6010 C   0  0  0  0  0  2  0  0  0  0  0  0
  146.7160  139.4900  148.3300 C   0  0  0  0  0  2  0  0  0  0  0  0
  146.3270  140.9560  148.1370 C   0  0  0  0  0  2  0  0  0  0  0  0
  145.9310  141.5700  149.4850 C   0  0  0  0  0  2  0  0  0  0  0  0
  147.0120  142.5020  150.0280 C   0  0  0  0  0  2  0  0  0  0  0  0
  147.3340  142.2150  151.4760 C   0  0  0  0  0  0  0  0  0  0  0  0
  148.6430  141.8920  151.8590 C   0  0  0  0  0  3  0  0  0  0  0  0
  148.9550  141.6660  153.2010 C   0  0  0  0  0  3  0  0  0  0  0  0
  147.9590  141.7510  154.1720 C   0  0  0  0  0  3  0  0  0  0  0  0
  146.6480  142.0420  153.8000 C   0  0  0  0  0  3  0  0  0  0  0  0
  146.3350  142.2680  152.4570 C   0  0  0  0  0  3  0  0  0  0  0  0
  1  5  1  0  0  0  0
  2  3  2  0  0  0  0
  2  1  1  0  0  0  0
  4  1  1  0  0  0  0
  5  8  1  0  0  0  0
  6 13  1  0  0  0  0
  6 11  1  0  0  0  0
  7  6  2  0  0  0  0
  8  7  1  0  0  0  0
  8  9  2  0  0  0  0
  9 10  1  0  0  0  0
 10 11  2  0  0  0  0
 11 14  1  0  0  0  0
 12 13  1  0  0  0  0
 14 15  1  0  0  0  0
 16  2  1  0  0  0  0
 17 16  1  0  0  0  0
 18 17  1  0  0  0  0
 18 19  1  0  0  0  0
 19 20  1  0  0  0  0
 20 21  1  0  0  0  0
 21 22  2  0  0  0  0
 21 26  1  0  0  0  0
 22 23  1  0  0  0  0
 23 24  2  0  0  0  0
 25 24  1  0  0  0  0
 26 25  2  0  0  0  0
M  END
>  <MODEL>
1

>  <REMARK>
 VINA RESULT:    -7.960      0.000      0.000
 INTER + INTRA:         -13.259
 INTER:                 -11.282
 INTRA:                  -1.977
 UNBOUND:                -0.879
  Name = CHEMBL310652
  11 active torsions:
  status: ('A' for Active; 'I' for Inactive)
    1  A    between atoms: C_1  and  O_2
    2  A    between atoms: O_2  and  C_3
    3  A    between atoms: C_5  and  C_6
    4  A    between atoms: C_6  and  N_7
    5  A    between atoms: C_8  and  C_10
    6  A    between atoms: C_10  and  C_11
    7  A    between atoms: C_11  and  C_12
    8  A    between atoms: C_12  and  C_13
    9  A    between atoms: C_13  and  C_14
   10  A    between atoms: C_14  and  C_15
   11  A    between atoms: C_23  and  O_24
                            x       y       z     vdW  Elec       q    Type
                         _______ _______ _______ _____ _____    ______ ____

>  <TORSDO>
F 10

>  <SCORE>
-7.960

>  <RMSD_LB>
0.000

>  <RMSD_UB>
0.000

$$$$
CHEMBL310652
 OpenBabel10162523543D

 26 27  0  0  0  0  0  0  0  0999 V2000
  147.0420  137.5850  150.2130 N   0  0  0  0  0  0  0  0  0  0  0  0
  146.3020  137.8290  149.0800 C   0  0  0  0  0  0  0  0  0  0  0  0
  145.2040  137.3220  148.8720 O   0  0  0  0  0  0  0  0  0  0  0  0
  147.9310  138.0010  150.3030 H   0  0  0  0  0  0  0  0  0  0  0  0
  146.5510  136.7380  151.2750 C   0  0  0  0  0  2  0  0  0  0  0  0
  146.2530  138.3790  154.7150 C   0  0  0  0  0  0  0  0  0  0  0  0
  146.7310  137.6210  153.6400 C   0  0  0  0  0  3  0  0  0  0  0  0
  145.9960  137.5220  152.4390 C   0  0  0  0  0  0  0  0  0  0  0  0
  144.7620  138.1730  152.3440 C   0  0  0  0  0  3  0  0  0  0  0  0
  144.2740  138.9270  153.4110 C   0  0  0  0  0  3  0  0  0  0  0  0
  145.0170  139.0320  154.5830 C   0  0  0  0  0  0  0  0  0  0  0  0
  148.1220  137.8410  156.0920 C   0  0  0  0  0  1  0  0  0  0  0  0
  146.9050  138.5530  155.9040 O   0  0  0  0  0  0  0  0  0  0  0  0
  144.5380  139.7770  155.6250 O   0  0  0  0  0  0  0  0  0  0  0  0
  144.9210  139.6940  156.4760 H   0  0  0  0  0  0  0  0  0  0  0  0
  146.9990  138.7350  148.0760 C   0  0  0  0  0  2  0  0  0  0  0  0
  146.0630  139.8510  147.6260 C   0  0  0  0  0  2  0  0  0  0  0  0
  146.3030  141.1650  148.3680 C   0  0  0  0  0  2  0  0  0  0  0  0
  145.6260  141.1160  149.7440 C   0  0  0  0  0  2  0  0  0  0  0  0
  145.8500  142.4010  150.5370 C   0  0  0  0  0  2  0  0  0  0  0  0
  146.7840  142.1920  151.7060 C   0  0  0  0  0  0  0  0  0  0  0  0
  146.2870  142.1840  153.0160 C   0  0  0  0  0  3  0  0  0  0  0  0
  147.1390  141.9510  154.0970 C   0  0  0  0  0  3  0  0  0  0  0  0
  148.4980  141.7320  153.8800 C   0  0  0  0  0  3  0  0  0  0  0  0
  149.0090  141.7670  152.5840 C   0  0  0  0  0  3  0  0  0  0  0  0
  148.1570  142.0020  151.5010 C   0  0  0  0  0  3  0  0  0  0  0  0
  1  4  1  0  0  0  0
  1  5  1  0  0  0  0
  2  1  1  0  0  0  0
  3  2  2  0  0  0  0
  5  8  1  0  0  0  0
  6 13  1  0  0  0  0
  7  6  2  0  0  0  0
  8  7  1  0  0  0  0
  9  8  2  0  0  0  0
  9 10  1  0  0  0  0
 10 11  2  0  0  0  0
 11  6  1  0  0  0  0
 11 14  1  0  0  0  0
 13 12  1  0  0  0  0
 14 15  1  0  0  0  0
 16  2  1  0  0  0  0
 17 16  1  0  0  0  0
 17 18  1  0  0  0  0
 18 19  1  0  0  0  0
 19 20  1  0  0  0  0
 20 21  1  0  0  0  0
 21 22  1  0  0  0  0
 22 23  2  0  0  0  0
 24 23  1  0  0  0  0
 25 24  2  0  0  0  0
 26 21  2  0  0  0  0
 26 25  1  0  0  0  0
M  END
>  <MODEL>
2

>  <REMARK>
 VINA RESULT:    -7.619      0.894      2.171
 INTER + INTRA:         -12.729
 INTER:                 -10.911
 INTRA:                  -1.819
 UNBOUND:                -0.879
  Name = CHEMBL310652
  11 active torsions:
  status: ('A' for Active; 'I' for Inactive)
    1  A    between atoms: C_1  and  O_2
    2  A    between atoms: O_2  and  C_3
    3  A    between atoms: C_5  and  C_6
    4  A    between atoms: C_6  and  N_7
    5  A    between atoms: C_8  and  C_10
    6  A    between atoms: C_10  and  C_11
    7  A    between atoms: C_11  and  C_12
    8  A    between atoms: C_12  and  C_13
    9  A    between atoms: C_13  and  C_14
   10  A    between atoms: C_14  and  C_15
   11  A    between atoms: C_23  and  O_24
                            x       y       z     vdW  Elec       q    Type
                         _______ _______ _______ _____ _____    ______ ____

>  <TORSDO>
F 10

>  <SCORE>
-7.619

>  <RMSD_LB>
0.894

>  <RMSD_UB>
2.171

$$$$
CHEMBL310652
 OpenBabel10162523543D

 26 27  0  0  0  0  0  0  0  0999 V2000
  145.8900  137.2580  151.0820 N   0  0  0  0  0  0  0  0  0  0  0  0
  146.7940  138.2090  150.6710 C   0  0  0  0  0  0  0  0  0  0  0  0
  147.5970  138.7440  151.4290 O   0  0  0  0  0  0  0  0  0  0  0  0
  145.2510  136.8900  150.4270 H   0  0  0  0  0  0  0  0  0  0  0  0
  145.8500  136.7830  152.4460 C   0  0  0  0  0  2  0  0  0  0  0  0
  143.2260  138.9510  154.1860 C   0  0  0  0  0  0  0  0  0  0  0  0
  143.8400  138.0660  153.2920 C   0  0  0  0  0  3  0  0  0  0  0  0
  145.2170  137.7740  153.3910 C   0  0  0  0  0  0  0  0  0  0  0  0
  145.9740  138.4060  154.3840 C   0  0  0  0  0  3  0  0  0  0  0  0
  145.3730  139.2930  155.2770 C   0  0  0  0  0  3  0  0  0  0  0  0
  144.0100  139.5580  155.1790 C   0  0  0  0  0  0  0  0  0  0  0  0
  140.9690  138.2170  153.9690 C   0  0  0  0  0  1  0  0  0  0  0  0
  141.8970  139.2740  154.1820 O   0  0  0  0  0  0  0  0  0  0  0  0
  143.4220  140.4230  156.0610 O   0  0  0  0  0  0  0  0  0  0  0  0
  143.2300  141.3010  155.7980 H   0  0  0  0  0  0  0  0  0  0  0  0
  146.6650  138.5830  149.2030 C   0  0  0  0  0  2  0  0  0  0  0  0
  146.1300  140.0040  149.0610 C   0  0  0  0  0  2  0  0  0  0  0  0
  145.0940  140.3600  150.1280 C   0  0  0  0  0  2  0  0  0  0  0  0
  145.2290  141.8400  150.5070 C   0  0  0  0  0  2  0  0  0  0  0  0
  146.6770  142.3190  150.4390 C   0  0  0  0  0  2  0  0  0  0  0  0
  147.3910  142.1580  151.7600 C   0  0  0  0  0  0  0  0  0  0  0  0
  148.7880  142.0500  151.8000 C   0  0  0  0  0  3  0  0  0  0  0  0
  149.4570  141.9410  153.0210 C   0  0  0  0  0  3  0  0  0  0  0  0
  148.7350  141.9310  154.2130 C   0  0  0  0  0  3  0  0  0  0  0  0
  147.3440  142.0080  154.1840 C   0  0  0  0  0  3  0  0  0  0  0  0
  146.6740  142.1150  152.9630 C   0  0  0  0  0  3  0  0  0  0  0  0
  1  5  1  0  0  0  0
  2  1  1  0  0  0  0
  2  3  2  0  0  0  0
  4  1  1  0  0  0  0
  5  8  1  0  0  0  0
  6 11  1  0  0  0  0
  7  8  1  0  0  0  0
  7  6  2  0  0  0  0
  8  9  2  0  0  0  0
  9 10  1  0  0  0  0
 11 10  2  0  0  0  0
 11 14  1  0  0  0  0
 12 13  1  0  0  0  0
 13  6  1  0  0  0  0
 15 14  1  0  0  0  0
 16  2  1  0  0  0  0
 17 16  1  0  0  0  0
 17 18  1  0  0  0  0
 18 19  1  0  0  0  0
 20 19  1  0  0  0  0
 20 21  1  0  0  0  0
 21 22  2  0  0  0  0
 21 26  1  0  0  0  0
 22 23  1  0  0  0  0
 23 24  2  0  0  0  0
 25 24  1  0  0  0  0
 26 25  2  0  0  0  0
M  END
>  <MODEL>
3

>  <REMARK>
 VINA RESULT:    -7.458      1.665      2.152
 INTER + INTRA:         -12.479
 INTER:                 -10.756
 INTRA:                  -1.722
 UNBOUND:                -0.879
  Name = CHEMBL310652
  11 active torsions:
  status: ('A' for Active; 'I' for Inactive)
    1  A    between atoms: C_1  and  O_2
    2  A    between atoms: O_2  and  C_3
    3  A    between atoms: C_5  and  C_6
    4  A    between atoms: C_6  and  N_7
    5  A    between atoms: C_8  and  C_10
    6  A    between atoms: C_10  and  C_11
    7  A    between atoms: C_11  and  C_12
    8  A    between atoms: C_12  and  C_13
    9  A    between atoms: C_13  and  C_14
   10  A    between atoms: C_14  and  C_15
   11  A    between atoms: C_23  and  O_24
                            x       y       z     vdW  Elec       q    Type
                         _______ _______ _______ _____ _____    ______ ____

>  <TORSDO>
F 10

>  <SCORE>
-7.458

>  <RMSD_LB>
1.665

>  <RMSD_UB>
2.152

$$$$
CHEMBL310652
 OpenBabel10162523543D

 26 27  0  0  0  0  0  0  0  0999 V2000
  142.7240  139.3010  150.3710 N   0  0  0  0  0  0  0  0  0  0  0  0
  141.3680  139.4010  150.1670 C   0  0  0  0  0  0  0  0  0  0  0  0
  140.8350  140.3810  149.6550 O   0  0  0  0  0  0  0  0  0  0  0  0
  143.0830  138.4980  150.8160 H   0  0  0  0  0  0  0  0  0  0  0  0
  143.6360  140.3390  149.9490 C   0  0  0  0  0  2  0  0  0  0  0  0
  146.6990  141.2000  152.0690 C   0  0  0  0  0  0  0  0  0  0  0  0
  145.4670  141.2960  151.4100 C   0  0  0  0  0  3  0  0  0  0  0  0
  144.9870  140.2340  150.6140 C   0  0  0  0  0  0  0  0  0  0  0  0
  145.7740  139.0870  150.4670 C   0  0  0  0  0  3  0  0  0  0  0  0
  147.0040  138.9830  151.1150 C   0  0  0  0  0  3  0  0  0  0  0  0
  147.4580  140.0300  151.9130 C   0  0  0  0  0  0  0  0  0  0  0  0
  146.7810  142.2060  154.2290 C   0  0  0  0  0  1  0  0  0  0  0  0
  147.2320  142.1640  152.8800 O   0  0  0  0  0  0  0  0  0  0  0  0
  148.6630  139.9220  152.5520 O   0  0  0  0  0  0  0  0  0  0  0  0
  149.1460  139.1210  152.5090 H   0  0  0  0  0  0  0  0  0  0  0  0
  140.5800  138.2120  150.6940 C   0  0  0  0  0  2  0  0  0  0  0  0
  141.2930  137.5860  151.8880 C   0  0  0  0  0  2  0  0  0  0  0  0
  140.7960  138.1270  153.2290 C   0  0  0  0  0  2  0  0  0  0  0  0
  141.9350  138.0930  154.2560 C   0  0  0  0  0  2  0  0  0  0  0  0
  143.1000  138.9920  153.8470 C   0  0  0  0  0  2  0  0  0  0  0  0
  144.4340  138.3040  154.0140 C   0  0  0  0  0  0  0  0  0  0  0  0
  145.4400  138.8920  154.7920 C   0  0  0  0  0  3  0  0  0  0  0  0
  146.6610  138.2410  154.9820 C   0  0  0  0  0  3  0  0  0  0  0  0
  146.8900  137.0010  154.3900 C   0  0  0  0  0  3  0  0  0  0  0  0
  145.9080  136.4200  153.5900 C   0  0  0  0  0  3  0  0  0  0  0  0
  144.6860  137.0710  153.3980 C   0  0  0  0  0  3  0  0  0  0  0  0
  1  4  1  0  0  0  0
  2  1  1  0  0  0  0
  2 16  1  0  0  0  0
  3  2  2  0  0  0  0
  5  1  1  0  0  0  0
  5  8  1  0  0  0  0
  6 13  1  0  0  0  0
  7  6  2  0  0  0  0
  8  7  1  0  0  0  0
  9  8  2  0  0  0  0
  9 10  1  0  0  0  0
 10 11  2  0  0  0  0
 11  6  1  0  0  0  0
 11 14  1  0  0  0  0
 13 12  1  0  0  0  0
 15 14  1  0  0  0  0
 16 17  1  0  0  0  0
 17 18  1  0  0  0  0
 18 19  1  0  0  0  0
 20 21  1  0  0  0  0
 20 19  1  0  0  0  0
 21 22  1  0  0  0  0
 22 23  2  0  0  0  0
 24 23  1  0  0  0  0
 25 24  2  0  0  0  0
 26 25  1  0  0  0  0
 26 21  2  0  0  0  0
M  END
>  <MODEL>
4

>  <REMARK>
 VINA RESULT:    -7.257      2.934      5.248
 INTER + INTRA:         -12.167
 INTER:                  -9.501
 INTRA:                  -2.666
 UNBOUND:                -0.879
  Name = CHEMBL310652
  11 active torsions:
  status: ('A' for Active; 'I' for Inactive)
    1  A    between atoms: C_1  and  O_2
    2  A    between atoms: O_2  and  C_3
    3  A    between atoms: C_5  and  C_6
    4  A    between atoms: C_6  and  N_7
    5  A    between atoms: C_8  and  C_10
    6  A    between atoms: C_10  and  C_11
    7  A    between atoms: C_11  and  C_12
    8  A    between atoms: C_12  and  C_13
    9  A    between atoms: C_13  and  C_14
   10  A    between atoms: C_14  and  C_15
   11  A    between atoms: C_23  and  O_24
                            x       y       z     vdW  Elec       q    Type
                         _______ _______ _______ _____ _____    ______ ____

>  <TORSDO>
F 10

>  <SCORE>
-7.257

>  <RMSD_LB>
2.934

>  <RMSD_UB>
5.248

$$$$
CHEMBL310652
 OpenBabel10162523543D

 26 27  0  0  0  0  0  0  0  0999 V2000
  141.1160  138.8820  153.6940 N   0  0  0  0  0  0  0  0  0  0  0  0
  142.1820  139.2850  154.4630 C   0  0  0  0  0  0  0  0  0  0  0  0
  142.0590  139.7450  155.5940 O   0  0  0  0  0  0  0  0  0  0  0  0
  141.2830  138.5500  152.7810 H   0  0  0  0  0  0  0  0  0  0  0  0
  139.7590  138.9320  154.1870 C   0  0  0  0  0  2  0  0  0  0  0  0
  138.0920  137.3840  151.1140 C   0  0  0  0  0  0  0  0  0  0  0  0
  138.9480  138.1380  151.9250 C   0  0  0  0  0  3  0  0  0  0  0  0
  138.7970  138.1480  153.3280 C   0  0  0  0  0  0  0  0  0  0  0  0
  137.7560  137.4100  153.9020 C   0  0  0  0  0  3  0  0  0  0  0  0
  136.8950  136.6600  153.1040 C   0  0  0  0  0  3  0  0  0  0  0  0
  137.0660  136.6440  151.7220 C   0  0  0  0  0  0  0  0  0  0  0  0
  139.4730  137.3910  149.1710 C   0  0  0  0  0  1  0  0  0  0  0  0
  138.1780  137.2930  149.7520 O   0  0  0  0  0  0  0  0  0  0  0  0
  136.2240  135.9000  150.9420 O   0  0  0  0  0  0  0  0  0  0  0  0
  136.4270  135.7540  150.0400 H   0  0  0  0  0  0  0  0  0  0  0  0
  143.5250  139.1680  153.7590 C   0  0  0  0  0  2  0  0  0  0  0  0
  143.4170  139.6630  152.3210 C   0  0  0  0  0  2  0  0  0  0  0  0
  144.7640  139.6930  151.5990 C   0  0  0  0  0  2  0  0  0  0  0  0
  144.8840  140.9830  150.7780 C   0  0  0  0  0  2  0  0  0  0  0  0
  145.2350  142.1860  151.6500 C   0  0  0  0  0  2  0  0  0  0  0  0
  146.6040  142.0560  152.2740 C   0  0  0  0  0  0  0  0  0  0  0  0
  147.7470  142.0030  151.4650 C   0  0  0  0  0  3  0  0  0  0  0  0
  149.0190  141.9230  152.0370 C   0  0  0  0  0  3  0  0  0  0  0  0
  149.1590  141.8870  153.4230 C   0  0  0  0  0  3  0  0  0  0  0  0
  148.0280  141.9100  154.2370 C   0  0  0  0  0  3  0  0  0  0  0  0
  146.7550  141.9880  153.6650 C   0  0  0  0  0  3  0  0  0  0  0  0
  1  5  1  0  0  0  0
  1  2  1  0  0  0  0
  2  3  2  0  0  0  0
  4  1  1  0  0  0  0
  6 11  2  0  0  0  0
  6  7  1  0  0  0  0
  7  8  2  0  0  0  0
  8  9  1  0  0  0  0
  8  5  1  0  0  0  0
 10  9  2  0  0  0  0
 11 10  1  0  0  0  0
 12 13  1  0  0  0  0
 13  6  1  0  0  0  0
 14 11  1  0  0  0  0
 15 14  1  0  0  0  0
 16  2  1  0  0  0  0
 17 16  1  0  0  0  0
 18 17  1  0  0  0  0
 19 18  1  0  0  0  0
 19 20  1  0  0  0  0
 20 21  1  0  0  0  0
 21 26  1  0  0  0  0
 22 23  1  0  0  0  0
 22 21  2  0  0  0  0
 23 24  2  0  0  0  0
 24 25  1  0  0  0  0
 26 25  2  0  0  0  0
M  END
>  <MODEL>
5

>  <REMARK>
 VINA RESULT:    -7.232      4.609      6.884
 INTER + INTRA:         -12.127
 INTER:                 -11.094
 INTRA:                  -1.033
 UNBOUND:                -0.879
  Name = CHEMBL310652
  11 active torsions:
  status: ('A' for Active; 'I' for Inactive)
    1  A    between atoms: C_1  and  O_2
    2  A    between atoms: O_2  and  C_3
    3  A    between atoms: C_5  and  C_6
    4  A    between atoms: C_6  and  N_7
    5  A    between atoms: C_8  and  C_10
    6  A    between atoms: C_10  and  C_11
    7  A    between atoms: C_11  and  C_12
    8  A    between atoms: C_12  and  C_13
    9  A    between atoms: C_13  and  C_14
   10  A    between atoms: C_14  and  C_15
   11  A    between atoms: C_23  and  O_24
                            x       y       z     vdW  Elec       q    Type
                         _______ _______ _______ _____ _____    ______ ____

>  <TORSDO>
F 10

>  <SCORE>
-7.232

>  <RMSD_LB>
4.609

>  <RMSD_UB>
6.884

$$$$
CHEMBL310652
 OpenBabel10162523543D

 26 27  0  0  0  0  0  0  0  0999 V2000
  145.5540  141.6730  149.4590 N   0  0  0  0  0  0  0  0  0  0  0  0
  145.6480  140.4220  148.8940 C   0  0  0  0  0  0  0  0  0  0  0  0
  146.7170  139.9050  148.5810 O   0  0  0  0  0  0  0  0  0  0  0  0
  144.6620  142.0420  149.6580 H   0  0  0  0  0  0  0  0  0  0  0  0
  146.7260  142.4590  149.7690 C   0  0  0  0  0  2  0  0  0  0  0  0
  146.9430  141.4360  153.4460 C   0  0  0  0  0  0  0  0  0  0  0  0
  146.4330  141.7680  152.1850 C   0  0  0  0  0  3  0  0  0  0  0  0
  147.2930  142.1490  151.1330 C   0  0  0  0  0  0  0  0  0  0  0  0
  148.6690  142.2190  151.3730 C   0  0  0  0  0  3  0  0  0  0  0  0
  149.1870  141.8950  152.6270 C   0  0  0  0  0  3  0  0  0  0  0  0
  148.3300  141.5030  153.6510 C   0  0  0  0  0  0  0  0  0  0  0  0
  145.5810  139.7500  154.4370 C   0  0  0  0  0  1  0  0  0  0  0  0
  146.1920  141.0320  154.5150 O   0  0  0  0  0  0  0  0  0  0  0  0
  148.8430  141.1790  154.8770 O   0  0  0  0  0  0  0  0  0  0  0  0
  148.5270  141.6120  155.6460 H   0  0  0  0  0  0  0  0  0  0  0  0
  144.3020  139.7650  148.6340 C   0  0  0  0  0  2  0  0  0  0  0  0
  144.4790  138.2710  148.3860 C   0  0  0  0  0  2  0  0  0  0  0  0
  143.3220  137.6570  147.5970 C   0  0  0  0  0  2  0  0  0  0  0  0
  142.2610  137.1180  148.5660 C   0  0  0  0  0  2  0  0  0  0  0  0
  142.8880  136.5050  149.8150 C   0  0  0  0  0  2  0  0  0  0  0  0
  142.2980  137.0730  151.0840 C   0  0  0  0  0  0  0  0  0  0  0  0
  140.9210  137.3160  151.1770 C   0  0  0  0  0  3  0  0  0  0  0  0
  140.3640  137.8040  152.3610 C   0  0  0  0  0  3  0  0  0  0  0  0
  141.1800  138.0610  153.4610 C   0  0  0  0  0  3  0  0  0  0  0  0
  142.5550  137.8510  153.3720 C   0  0  0  0  0  3  0  0  0  0  0  0
  143.1130  137.3650  152.1860 C   0  0  0  0  0  3  0  0  0  0  0  0
  1  4  1  0  0  0  0
  1  5  1  0  0  0  0
  2  1  1  0  0  0  0
  3  2  2  0  0  0  0
  5  8  1  0  0  0  0
  6 11  1  0  0  0  0
  6 13  1  0  0  0  0
  7  6  2  0  0  0  0
  8  9  2  0  0  0  0
  8  7  1  0  0  0  0
  9 10  1  0  0  0  0
 10 11  2  0  0  0  0
 11 14  1  0  0  0  0
 12 13  1  0  0  0  0
 14 15  1  0  0  0  0
 16  2  1  0  0  0  0
 17 16  1  0  0  0  0
 18 17  1  0  0  0  0
 18 19  1  0  0  0  0
 19 20  1  0  0  0  0
 20 21  1  0  0  0  0
 21 22  2  0  0  0  0
 21 26  1  0  0  0  0
 22 23  1  0  0  0  0
 23 24  2  0  0  0  0
 25 24  1  0  0  0  0
 26 25  2  0  0  0  0
M  END
>  <MODEL>
6

>  <REMARK>
 VINA RESULT:    -7.124      2.596      5.331
 INTER + INTRA:         -11.959
 INTER:                 -10.695
 INTRA:                  -1.264
 UNBOUND:                -0.879
  Name = CHEMBL310652
  11 active torsions:
  status: ('A' for Active; 'I' for Inactive)
    1  A    between atoms: C_1  and  O_2
    2  A    between atoms: O_2  and  C_3
    3  A    between atoms: C_5  and  C_6
    4  A    between atoms: C_6  and  N_7
    5  A    between atoms: C_8  and  C_10
    6  A    between atoms: C_10  and  C_11
    7  A    between atoms: C_11  and  C_12
    8  A    between atoms: C_12  and  C_13
    9  A    between atoms: C_13  and  C_14
   10  A    between atoms: C_14  and  C_15
   11  A    between atoms: C_23  and  O_24
                            x       y       z     vdW  Elec       q    Type
                         _______ _______ _______ _____ _____    ______ ____

>  <TORSDO>
F 10

>  <SCORE>
-7.124

>  <RMSD_LB>
2.596

>  <RMSD_UB>
5.331

$$$$
CHEMBL310652
 OpenBabel10162523543D

 26 27  0  0  0  0  0  0  0  0999 V2000
  144.3310  137.2930  150.0340 N   0  0  0  0  0  0  0  0  0  0  0  0
  145.5230  137.7320  150.5610 C   0  0  0  0  0  0  0  0  0  0  0  0
  145.8370  137.5700  151.7370 O   0  0  0  0  0  0  0  0  0  0  0  0
  144.1270  137.4840  149.0880 H   0  0  0  0  0  0  0  0  0  0  0  0
  143.3700  136.5610  150.8270 C   0  0  0  0  0  2  0  0  0  0  0  0
  140.9910  138.5640  153.0490 C   0  0  0  0  0  0  0  0  0  0  0  0
  142.0410  137.7400  152.6280 C   0  0  0  0  0  3  0  0  0  0  0  0
  142.2050  137.4140  151.2650 C   0  0  0  0  0  0  0  0  0  0  0  0
  141.2820  137.9050  150.3350 C   0  0  0  0  0  3  0  0  0  0  0  0
  140.2300  138.7220  150.7440 C   0  0  0  0  0  3  0  0  0  0  0  0
  140.0900  139.0520  152.0890 C   0  0  0  0  0  0  0  0  0  0  0  0
  141.9080  139.1710  155.1640 C   0  0  0  0  0  1  0  0  0  0  0  0
  140.7680  138.9540  154.3410 O   0  0  0  0  0  0  0  0  0  0  0  0
  139.0600  139.8600  152.4860 O   0  0  0  0  0  0  0  0  0  0  0  0
  138.6020  140.3790  151.8550 H   0  0  0  0  0  0  0  0  0  0  0  0
  146.3880  138.4930  149.5700 C   0  0  0  0  0  2  0  0  0  0  0  0
  145.5170  139.2280  148.5570 C   0  0  0  0  0  2  0  0  0  0  0  0
  145.2830  140.6930  148.9240 C   0  0  0  0  0  2  0  0  0  0  0  0
  146.6240  141.4370  148.9700 C   0  0  0  0  0  2  0  0  0  0  0  0
  146.5620  142.6720  149.8660 C   0  0  0  0  0  2  0  0  0  0  0  0
  147.0380  142.3790  151.2690 C   0  0  0  0  0  0  0  0  0  0  0  0
  146.1320  142.3870  152.3390 C   0  0  0  0  0  3  0  0  0  0  0  0
  146.5590  142.0770  153.6320 C   0  0  0  0  0  3  0  0  0  0  0  0
  147.8960  141.7660  153.8700 C   0  0  0  0  0  3  0  0  0  0  0  0
  148.8120  141.7840  152.8190 C   0  0  0  0  0  3  0  0  0  0  0  0
  148.3860  142.0950  151.5250 C   0  0  0  0  0  3  0  0  0  0  0  0
  1  2  1  0  0  0  0
  1  5  1  0  0  0  0
  2  3  2  0  0  0  0
  4  1  1  0  0  0  0
  5  8  1  0  0  0  0
  6 13  1  0  0  0  0
  7  6  1  0  0  0  0
  8  7  2  0  0  0  0
  9 10  2  0  0  0  0
  9  8  1  0  0  0  0
 10 11  1  0  0  0  0
 11 14  1  0  0  0  0
 11  6  2  0  0  0  0
 13 12  1  0  0  0  0
 15 14  1  0  0  0  0
 16  2  1  0  0  0  0
 17 18  1  0  0  0  0
 17 16  1  0  0  0  0
 18 19  1  0  0  0  0
 19 20  1  0  0  0  0
 20 21  1  0  0  0  0
 21 26  2  0  0  0  0
 21 22  1  0  0  0  0
 22 23  2  0  0  0  0
 23 24  1  0  0  0  0
 25 24  2  0  0  0  0
 26 25  1  0  0  0  0
M  END
>  <MODEL>
7

>  <REMARK>
 VINA RESULT:    -7.076      2.722      4.255
 INTER + INTRA:         -11.885
 INTER:                 -10.573
 INTRA:                  -1.312
 UNBOUND:                -0.879
  Name = CHEMBL310652
  11 active torsions:
  status: ('A' for Active; 'I' for Inactive)
    1  A    between atoms: C_1  and  O_2
    2  A    between atoms: O_2  and  C_3
    3  A    between atoms: C_5  and  C_6
    4  A    between atoms: C_6  and  N_7
    5  A    between atoms: C_8  and  C_10
    6  A    between atoms: C_10  and  C_11
    7  A    between atoms: C_11  and  C_12
    8  A    between atoms: C_12  and  C_13
    9  A    between atoms: C_13  and  C_14
   10  A    between atoms: C_14  and  C_15
   11  A    between atoms: C_23  and  O_24
                            x       y       z     vdW  Elec       q    Type
                         _______ _______ _______ _____ _____    ______ ____

>  <TORSDO>
F 10

>  <SCORE>
-7.076

>  <RMSD_LB>
2.722

>  <RMSD_UB>
4.255

$$$$
CHEMBL310652
 OpenBabel10162523543D

 26 27  0  0  0  0  0  0  0  0999 V2000
  138.1140  137.5710  154.3550 N   0  0  0  0  0  0  0  0  0  0  0  0
  137.1650  137.8190  155.3180 C   0  0  0  0  0  0  0  0  0  0  0  0
  136.9630  138.9330  155.7920 O   0  0  0  0  0  0  0  0  0  0  0  0
  138.2460  136.6470  154.0390 H   0  0  0  0  0  0  0  0  0  0  0  0
  138.9240  138.6290  153.7930 C   0  0  0  0  0  2  0  0  0  0  0  0
  141.0310  137.1430  150.9700 C   0  0  0  0  0  0  0  0  0  0  0  0
  139.9370  137.5930  151.7180 C   0  0  0  0  0  3  0  0  0  0  0  0
  140.1110  138.1070  153.0210 C   0  0  0  0  0  0  0  0  0  0  0  0
  141.3970  138.1360  153.5710 C   0  0  0  0  0  3  0  0  0  0  0  0
  142.4930  137.6870  152.8360 C   0  0  0  0  0  3  0  0  0  0  0  0
  142.3100  137.1990  151.5450 C   0  0  0  0  0  0  0  0  0  0  0  0
  139.7320  136.8160  148.9990 C   0  0  0  0  0  1  0  0  0  0  0  0
  140.9620  136.6550  149.6940 O   0  0  0  0  0  0  0  0  0  0  0  0
  143.3880  136.7650  150.8250 O   0  0  0  0  0  0  0  0  0  0  0  0
  144.1610  136.4730  151.2670 H   0  0  0  0  0  0  0  0  0  0  0  0
  136.4290  136.5740  155.7880 C   0  0  0  0  0  2  0  0  0  0  0  0
  136.1760  135.6310  154.6160 C   0  0  0  0  0  2  0  0  0  0  0  0
  134.9070  134.7960  154.7880 C   0  0  0  0  0  2  0  0  0  0  0  0
  134.6510  133.9740  153.5190 C   0  0  0  0  0  2  0  0  0  0  0  0
  135.5380  134.4200  152.3600 C   0  0  0  0  0  2  0  0  0  0  0  0
  134.7560  135.1510  151.2940 C   0  0  0  0  0  0  0  0  0  0  0  0
  133.3980  135.4380  151.4860 C   0  0  0  0  0  3  0  0  0  0  0  0
  132.6800  136.1480  150.5210 C   0  0  0  0  0  3  0  0  0  0  0  0
  133.3110  136.5700  149.3530 C   0  0  0  0  0  3  0  0  0  0  0  0
  134.6530  136.2650  149.1370 C   0  0  0  0  0  3  0  0  0  0  0  0
  135.3720  135.5530  150.1010 C   0  0  0  0  0  3  0  0  0  0  0  0
  1  2  1  0  0  0  0
  2 16  1  0  0  0  0
  2  3  2  0  0  0  0
  4  1  1  0  0  0  0
  5  1  1  0  0  0  0
  6 11  2  0  0  0  0
  6  7  1  0  0  0  0
  7  8  2  0  0  0  0
  8  9  1  0  0  0  0
  8  5  1  0  0  0  0
 10  9  2  0  0  0  0
 11 10  1  0  0  0  0
 12 13  1  0  0  0  0
 13  6  1  0  0  0  0
 14 15  1  0  0  0  0
 14 11  1  0  0  0  0
 17 18  1  0  0  0  0
 17 16  1  0  0  0  0
 19 18  1  0  0  0  0
 20 19  1  0  0  0  0
 21 22  1  0  0  0  0
 21 20  1  0  0  0  0
 23 22  2  0  0  0  0
 24 23  1  0  0  0  0
 25 24  2  0  0  0  0
 25 26  1  0  0  0  0
 26 21  2  0  0  0  0
M  END
>  <MODEL>
8

>  <REMARK>
 VINA RESULT:    -7.025      8.013     11.429
 INTER + INTRA:         -11.806
 INTER:                 -10.745
 INTRA:                  -1.061
 UNBOUND:                -0.879
  Name = CHEMBL310652
  11 active torsions:
  status: ('A' for Active; 'I' for Inactive)
    1  A    between atoms: C_1  and  O_2
    2  A    between atoms: O_2  and  C_3
    3  A    between atoms: C_5  and  C_6
    4  A    between atoms: C_6  and  N_7
    5  A    between atoms: C_8  and  C_10
    6  A    between atoms: C_10  and  C_11
    7  A    between atoms: C_11  and  C_12
    8  A    between atoms: C_12  and  C_13
    9  A    between atoms: C_13  and  C_14
   10  A    between atoms: C_14  and  C_15
   11  A    between atoms: C_23  and  O_24
                            x       y       z     vdW  Elec       q    Type
                         _______ _______ _______ _____ _____    ______ ____

>  <TORSDO>
F 10

>  <SCORE>
-7.025

>  <RMSD_LB>
8.013

>  <RMSD_UB>
11.429

$$$$
CHEMBL310652
 OpenBabel10162523543D

 26 27  0  0  0  0  0  0  0  0999 V2000
  137.6860  137.4790  154.7870 N   0  0  0  0  0  0  0  0  0  0  0  0
  136.9750  137.5290  155.9630 C   0  0  0  0  0  0  0  0  0  0  0  0
  136.9640  138.5090  156.7010 O   0  0  0  0  0  0  0  0  0  0  0  0
  137.6770  136.6490  154.2570 H   0  0  0  0  0  0  0  0  0  0  0  0
  138.4480  138.6100  154.3100 C   0  0  0  0  0  2  0  0  0  0  0  0
  141.9950  137.8000  153.1370 C   0  0  0  0  0  0  0  0  0  0  0  0
  140.9180  138.2130  153.9300 C   0  0  0  0  0  3  0  0  0  0  0  0
  139.6000  138.2060  153.4240 C   0  0  0  0  0  0  0  0  0  0  0  0
  139.3850  137.8050  152.1010 C   0  0  0  0  0  3  0  0  0  0  0  0
  140.4510  137.3970  151.3010 C   0  0  0  0  0  3  0  0  0  0  0  0
  141.7440  137.3910  151.8180 C   0  0  0  0  0  0  0  0  0  0  0  0
  143.9280  138.9810  153.8800 C   0  0  0  0  0  1  0  0  0  0  0  0
  143.2980  137.7490  153.5480 O   0  0  0  0  0  0  0  0  0  0  0  0
  142.7870  136.9840  151.0320 O   0  0  0  0  0  0  0  0  0  0  0  0
  142.7090  137.0110  150.0990 H   0  0  0  0  0  0  0  0  0  0  0  0
  136.2520  136.2330  156.2970 C   0  0  0  0  0  2  0  0  0  0  0  0
  135.8520  135.5020  155.0200 C   0  0  0  0  0  2  0  0  0  0  0  0
  134.4820  134.8320  155.1220 C   0  0  0  0  0  2  0  0  0  0  0  0
  133.6560  135.1460  153.8690 C   0  0  0  0  0  2  0  0  0  0  0  0
  134.5340  135.5910  152.7020 C   0  0  0  0  0  2  0  0  0  0  0  0
  134.0560  135.0280  151.3840 C   0  0  0  0  0  0  0  0  0  0  0  0
  133.4300  135.8590  150.4450 C   0  0  0  0  0  3  0  0  0  0  0  0
  133.0230  135.3530  149.2090 C   0  0  0  0  0  3  0  0  0  0  0  0
  133.2300  134.0090  148.9040 C   0  0  0  0  0  3  0  0  0  0  0  0
  133.8240  133.1660  149.8410 C   0  0  0  0  0  3  0  0  0  0  0  0
  134.2310  133.6720  151.0790 C   0  0  0  0  0  3  0  0  0  0  0  0
  1  2  1  0  0  0  0
  2 16  1  0  0  0  0
  2  3  2  0  0  0  0
  4  1  1  0  0  0  0
  5  1  1  0  0  0  0
  6 13  1  0  0  0  0
  6  7  1  0  0  0  0
  8  7  2  0  0  0  0
  8  5  1  0  0  0  0
  9  8  1  0  0  0  0
 10 11  1  0  0  0  0
 10  9  2  0  0  0  0
 11  6  2  0  0  0  0
 13 12  1  0  0  0  0
 14 11  1  0  0  0  0
 15 14  1  0  0  0  0
 17 18  1  0  0  0  0
 17 16  1  0  0  0  0
 19 18  1  0  0  0  0
 20 19  1  0  0  0  0
 21 20  1  0  0  0  0
 22 21  2  0  0  0  0
 23 22  1  0  0  0  0
 24 23  2  0  0  0  0
 24 25  1  0  0  0  0
 25 26  2  0  0  0  0
 26 21  1  0  0  0  0
M  END
>  <MODEL>
9

>  <REMARK>
 VINA RESULT:    -6.866      8.380     11.853
 INTER + INTRA:         -11.558
 INTER:                 -10.680
 INTRA:                  -0.879
 UNBOUND:                -0.879
  Name = CHEMBL310652
  11 active torsions:
  status: ('A' for Active; 'I' for Inactive)
    1  A    between atoms: C_1  and  O_2
    2  A    between atoms: O_2  and  C_3
    3  A    between atoms: C_5  and  C_6
    4  A    between atoms: C_6  and  N_7
    5  A    between atoms: C_8  and  C_10
    6  A    between atoms: C_10  and  C_11
    7  A    between atoms: C_11  and  C_12
    8  A    between atoms: C_12  and  C_13
    9  A    between atoms: C_13  and  C_14
   10  A    between atoms: C_14  and  C_15
   11  A    between atoms: C_23  and  O_24
                            x       y       z     vdW  Elec       q    Type
                         _______ _______ _______ _____ _____    ______ ____

>  <TORSDO>
F 10

>  <SCORE>
-6.866

>  <RMSD_LB>
8.380

>  <RMSD_UB>
11.853

$$$$
