CHEMBL1304274
 OpenBabel10172500183D

 23 24  0  0  0  0  0  0  0  0999 V2000
  134.7040  134.9470  155.6620 C   0  0  0  0  0  2  0  0  0  0  0  0
  135.8320  135.8390  156.1540 C   0  0  0  0  0  0  0  0  0  0  0  0
  136.3380  135.7160  157.2660 O   0  0  0  0  0  0  0  0  0  0  0  0
  136.2520  136.7950  155.2580 N   0  0  0  0  0  0  0  0  0  0  0  0
  135.8620  136.8320  154.3550 H   0  0  0  0  0  0  0  0  0  0  0  0
  137.2710  137.7490  155.6500 C   0  0  0  0  0  2  0  0  0  0  0  0
  138.3630  137.8870  154.6200 C   0  0  0  0  0  0  0  0  0  0  0  0
  139.6860  138.1440  155.0030 C   0  0  0  0  0  3  0  0  0  0  0  0
  140.7040  138.1860  154.0470 C   0  0  0  0  0  3  0  0  0  0  0  0
  140.4100  137.9710  152.7010 C   0  0  0  0  0  3  0  0  0  0  0  0
  139.0980  137.7170  152.3090 C   0  0  0  0  0  3  0  0  0  0  0  0
  138.0800  137.6730  153.2630 C   0  0  0  0  0  3  0  0  0  0  0  0
  135.0740  134.3100  154.3180 C   0  0  0  0  0  2  0  0  0  0  0  0
  133.9850  134.4430  153.2530 C   0  0  0  0  0  2  0  0  0  0  0  0
  135.6090  134.1400  149.2400 C   0  0  0  0  0  0  0  0  0  0  0  0
  136.2870  134.8570  150.2290 C   0  0  0  0  0  3  0  0  0  0  0  0
  135.7670  134.9460  151.5270 C   0  0  0  0  0  3  0  0  0  0  0  0
  134.5600  134.3210  151.8580 C   0  0  0  0  0  0  0  0  0  0  0  0
  133.8740  133.6170  150.8590 C   0  0  0  0  0  3  0  0  0  0  0  0
  134.3850  133.5240  149.5510 C   0  0  0  0  0  0  0  0  0  0  0  0
  133.6250  132.7570  148.5040 C   0  0  0  0  0  1  0  0  0  0  0  0
  136.4080  135.2420  147.2950 C   0  0  0  0  0  1  0  0  0  0  0  0
  136.0310  134.0300  147.9410 O   0  0  0  0  0  0  0  0  0  0  0  0
  1  2  1  0  0  0  0
  2  3  2  0  0  0  0
  4  6  1  0  0  0  0
  4  2  1  0  0  0  0
  5  4  1  0  0  0  0
  7  8  1  0  0  0  0
  7  6  1  0  0  0  0
  9  8  2  0  0  0  0
 10  9  1  0  0  0  0
 11 10  2  0  0  0  0
 11 12  1  0  0  0  0
 12  7  2  0  0  0  0
 13  1  1  0  0  0  0
 14 13  1  0  0  0  0
 15 20  2  0  0  0  0
 15 16  1  0  0  0  0
 16 17  2  0  0  0  0
 17 18  1  0  0  0  0
 18 14  1  0  0  0  0
 19 18  2  0  0  0  0
 20 19  1  0  0  0  0
 21 20  1  0  0  0  0
 22 23  1  0  0  0  0
 23 15  1  0  0  0  0
M  END
>  <MODEL>
1

>  <REMARK>
 VINA RESULT:    -5.753      0.000      0.000
 INTER + INTRA:         -10.401
 INTER:                  -9.437
 INTRA:                  -0.964
 UNBOUND:                -2.294
  Name = CHEMBL1304274
  9 active torsions:
  status: ('A' for Active; 'I' for Inactive)
    1  A    between atoms: C_1  and  O_2
    2  A    between atoms: O_2  and  C_3
    3  A    between atoms: C_6  and  C_7
    4  A    between atoms: C_7  and  C_8
    5  A    between atoms: C_8  and  C_9
    6  A    between atoms: C_9  and  C_10
    7  A    between atoms: N_12  and  C_13
    8  A    between atoms: C_13  and  C_14
    9  A    between atoms: C_21  and  C_22
                            x       y       z     vdW  Elec       q    Type
                         _______ _______ _______ _____ _____    ______ ____

>  <TORSDO>
F 7

>  <SCORE>
-5.753

>  <RMSD_LB>
0.000

>  <RMSD_UB>
0.000

$$$$
CHEMBL1304274
 OpenBabel10172500183D

 23 24  0  0  0  0  0  0  0  0999 V2000
  134.5410  135.9300  154.4190 C   0  0  0  0  0  2  0  0  0  0  0  0
  135.7570  136.4430  155.1720 C   0  0  0  0  0  0  0  0  0  0  0  0
  136.1840  137.5870  155.0420 O   0  0  0  0  0  0  0  0  0  0  0  0
  136.3440  135.5330  156.0210 N   0  0  0  0  0  0  0  0  0  0  0  0
  135.9440  134.6410  156.1430 H   0  0  0  0  0  0  0  0  0  0  0  0
  137.5540  135.8920  156.7330 C   0  0  0  0  0  2  0  0  0  0  0  0
  137.2730  136.4900  158.0880 C   0  0  0  0  0  0  0  0  0  0  0  0
  137.8260  137.7240  158.4590 C   0  0  0  0  0  3  0  0  0  0  0  0
  137.4920  138.3100  159.6830 C   0  0  0  0  0  3  0  0  0  0  0  0
  136.6040  137.6700  160.5450 C   0  0  0  0  0  3  0  0  0  0  0  0
  136.0500  136.4430  160.1890 C   0  0  0  0  0  3  0  0  0  0  0  0
  136.3810  135.8570  158.9660 C   0  0  0  0  0  3  0  0  0  0  0  0
  134.9750  135.0860  153.2150 C   0  0  0  0  0  2  0  0  0  0  0  0
  133.8950  134.1260  152.7140 C   0  0  0  0  0  2  0  0  0  0  0  0
  133.3740  134.5060  148.4230 C   0  0  0  0  0  0  0  0  0  0  0  0
  133.7410  133.2830  148.9880 C   0  0  0  0  0  3  0  0  0  0  0  0
  133.8990  133.1580  150.3750 C   0  0  0  0  0  3  0  0  0  0  0  0
  133.6940  134.2550  151.2190 C   0  0  0  0  0  0  0  0  0  0  0  0
  133.3440  135.4850  150.6460 C   0  0  0  0  0  3  0  0  0  0  0  0
  133.1850  135.6220  149.2540 C   0  0  0  0  0  0  0  0  0  0  0  0
  132.8030  136.9550  148.6730 C   0  0  0  0  0  1  0  0  0  0  0  0
  134.2760  134.2320  146.2440 C   0  0  0  0  0  1  0  0  0  0  0  0
  133.2300  134.7200  147.0760 O   0  0  0  0  0  0  0  0  0  0  0  0
  1  2  1  0  0  0  0
  2  4  1  0  0  0  0
  3  2  2  0  0  0  0
  4  5  1  0  0  0  0
  4  6  1  0  0  0  0
  6  7  1  0  0  0  0
  7  8  2  0  0  0  0
  7 12  1  0  0  0  0
  8  9  1  0  0  0  0
  9 10  2  0  0  0  0
 11 10  1  0  0  0  0
 12 11  2  0  0  0  0
 13  1  1  0  0  0  0
 14 13  1  0  0  0  0
 15 16  2  0  0  0  0
 15 20  1  0  0  0  0
 16 17  1  0  0  0  0
 17 18  2  0  0  0  0
 18 14  1  0  0  0  0
 19 18  1  0  0  0  0
 20 19  2  0  0  0  0
 21 20  1  0  0  0  0
 22 23  1  0  0  0  0
 23 15  1  0  0  0  0
M  END
>  <MODEL>
2

>  <REMARK>
 VINA RESULT:    -5.726      2.696      3.997
 INTER + INTRA:         -10.363
 INTER:                  -9.763
 INTRA:                  -0.599
 UNBOUND:                -2.294
  Name = CHEMBL1304274
  9 active torsions:
  status: ('A' for Active; 'I' for Inactive)
    1  A    between atoms: C_1  and  O_2
    2  A    between atoms: O_2  and  C_3
    3  A    between atoms: C_6  and  C_7
    4  A    between atoms: C_7  and  C_8
    5  A    between atoms: C_8  and  C_9
    6  A    between atoms: C_9  and  C_10
    7  A    between atoms: N_12  and  C_13
    8  A    between atoms: C_13  and  C_14
    9  A    between atoms: C_21  and  C_22
                            x       y       z     vdW  Elec       q    Type
                         _______ _______ _______ _____ _____    ______ ____

>  <TORSDO>
F 7

>  <SCORE>
-5.726

>  <RMSD_LB>
2.696

>  <RMSD_UB>
3.997

$$$$
CHEMBL1304274
 OpenBabel10172500183D

 23 24  0  0  0  0  0  0  0  0999 V2000
  135.9470  135.5280  151.5020 C   0  0  0  0  0  2  0  0  0  0  0  0
  134.9870  135.6910  152.6680 C   0  0  0  0  0  0  0  0  0  0  0  0
  134.1230  136.5640  152.6990 O   0  0  0  0  0  0  0  0  0  0  0  0
  135.1480  134.7820  153.6880 N   0  0  0  0  0  0  0  0  0  0  0  0
  135.8130  134.0610  153.6080 H   0  0  0  0  0  0  0  0  0  0  0  0
  134.3340  134.8910  154.8840 C   0  0  0  0  0  2  0  0  0  0  0  0
  135.1580  135.1050  156.1270 C   0  0  0  0  0  0  0  0  0  0  0  0
  136.3850  135.7820  156.0710 C   0  0  0  0  0  3  0  0  0  0  0  0
  137.1000  136.0490  157.2420 C   0  0  0  0  0  3  0  0  0  0  0  0
  136.5970  135.6440  158.4770 C   0  0  0  0  0  3  0  0  0  0  0  0
  135.3810  134.9700  158.5450 C   0  0  0  0  0  3  0  0  0  0  0  0
  134.6640  134.7030  157.3770 C   0  0  0  0  0  3  0  0  0  0  0  0
  135.5990  134.2740  150.6940 C   0  0  0  0  0  2  0  0  0  0  0  0
  134.1200  134.1740  150.3170 C   0  0  0  0  0  2  0  0  0  0  0  0
  133.1820  136.4910  146.7710 C   0  0  0  0  0  0  0  0  0  0  0  0
  132.7290  136.9000  148.0270 C   0  0  0  0  0  3  0  0  0  0  0  0
  133.0400  136.1570  149.1730 C   0  0  0  0  0  3  0  0  0  0  0  0
  133.8100  134.9920  149.0820 C   0  0  0  0  0  0  0  0  0  0  0  0
  134.2470  134.5750  147.8180 C   0  0  0  0  0  3  0  0  0  0  0  0
  133.9380  135.3130  146.6590 C   0  0  0  0  0  0  0  0  0  0  0  0
  134.4280  134.8390  145.3190 C   0  0  0  0  0  1  0  0  0  0  0  0
  133.3290  138.4940  145.5050 C   0  0  0  0  0  1  0  0  0  0  0  0
  132.8950  137.1420  145.5980 O   0  0  0  0  0  0  0  0  0  0  0  0
  1  2  1  0  0  0  0
  2  3  2  0  0  0  0
  2  4  1  0  0  0  0
  4  6  1  0  0  0  0
  5  4  1  0  0  0  0
  6  7  1  0  0  0  0
  7 12  1  0  0  0  0
  8  7  2  0  0  0  0
  8  9  1  0  0  0  0
  9 10  2  0  0  0  0
 10 11  1  0  0  0  0
 12 11  2  0  0  0  0
 13  1  1  0  0  0  0
 14 13  1  0  0  0  0
 15 16  1  0  0  0  0
 16 17  2  0  0  0  0
 18 17  1  0  0  0  0
 18 14  1  0  0  0  0
 19 18  2  0  0  0  0
 20 15  2  0  0  0  0
 20 19  1  0  0  0  0
 21 20  1  0  0  0  0
 22 23  1  0  0  0  0
 23 15  1  0  0  0  0
M  END
>  <MODEL>
3

>  <REMARK>
 VINA RESULT:    -5.676      2.980      4.624
 INTER + INTRA:         -10.293
 INTER:                  -9.509
 INTRA:                  -0.784
 UNBOUND:                -2.294
  Name = CHEMBL1304274
  9 active torsions:
  status: ('A' for Active; 'I' for Inactive)
    1  A    between atoms: C_1  and  O_2
    2  A    between atoms: O_2  and  C_3
    3  A    between atoms: C_6  and  C_7
    4  A    between atoms: C_7  and  C_8
    5  A    between atoms: C_8  and  C_9
    6  A    between atoms: C_9  and  C_10
    7  A    between atoms: N_12  and  C_13
    8  A    between atoms: C_13  and  C_14
    9  A    between atoms: C_21  and  C_22
                            x       y       z     vdW  Elec       q    Type
                         _______ _______ _______ _____ _____    ______ ____

>  <TORSDO>
F 7

>  <SCORE>
-5.676

>  <RMSD_LB>
2.980

>  <RMSD_UB>
4.624

$$$$
CHEMBL1304274
 OpenBabel10172500183D

 23 24  0  0  0  0  0  0  0  0999 V2000
  139.0520  135.2860  148.5160 C   0  0  0  0  0  2  0  0  0  0  0  0
  137.6670  135.2630  147.8910 C   0  0  0  0  0  0  0  0  0  0  0  0
  137.2910  136.1060  147.0810 O   0  0  0  0  0  0  0  0  0  0  0  0
  136.8630  134.2210  148.2920 N   0  0  0  0  0  0  0  0  0  0  0  0
  137.2140  133.5310  148.9000 H   0  0  0  0  0  0  0  0  0  0  0  0
  135.4960  134.1430  147.8150 C   0  0  0  0  0  2  0  0  0  0  0  0
  134.4890  134.4700  148.8880 C   0  0  0  0  0  0  0  0  0  0  0  0
  134.1430  135.7980  149.1710 C   0  0  0  0  0  3  0  0  0  0  0  0
  133.1480  136.0870  150.1090 C   0  0  0  0  0  3  0  0  0  0  0  0
  132.4900  135.0510  150.7710 C   0  0  0  0  0  3  0  0  0  0  0  0
  132.8270  133.7280  150.5000 C   0  0  0  0  0  3  0  0  0  0  0  0
  133.8200  133.4380  149.5630 C   0  0  0  0  0  3  0  0  0  0  0  0
  139.2800  136.6050  149.2610 C   0  0  0  0  0  2  0  0  0  0  0  0
  140.7380  136.8470  149.6550 C   0  0  0  0  0  2  0  0  0  0  0  0
  141.0790  138.1330  153.7850 C   0  0  0  0  0  0  0  0  0  0  0  0
  139.8430  138.1520  153.1350 C   0  0  0  0  0  3  0  0  0  0  0  0
  139.7320  137.7280  151.8040 C   0  0  0  0  0  3  0  0  0  0  0  0
  140.8540  137.2770  151.1020 C   0  0  0  0  0  0  0  0  0  0  0  0
  142.0950  137.2760  151.7520 C   0  0  0  0  0  3  0  0  0  0  0  0
  142.2190  137.7030  153.0870 C   0  0  0  0  0  0  0  0  0  0  0  0
  143.5660  137.6840  153.7570 C   0  0  0  0  0  1  0  0  0  0  0  0
  140.6220  137.8170  156.0930 C   0  0  0  0  0  1  0  0  0  0  0  0
  141.2790  138.5600  155.0720 O   0  0  0  0  0  0  0  0  0  0  0  0
  1 13  1  0  0  0  0
  2  4  1  0  0  0  0
  2  1  1  0  0  0  0
  3  2  2  0  0  0  0
  4  5  1  0  0  0  0
  6  4  1  0  0  0  0
  6  7  1  0  0  0  0
  7  8  2  0  0  0  0
  7 12  1  0  0  0  0
  8  9  1  0  0  0  0
  9 10  2  0  0  0  0
 11 10  1  0  0  0  0
 12 11  2  0  0  0  0
 13 14  1  0  0  0  0
 14 18  1  0  0  0  0
 15 23  1  0  0  0  0
 16 15  1  0  0  0  0
 17 16  2  0  0  0  0
 18 19  2  0  0  0  0
 18 17  1  0  0  0  0
 19 20  1  0  0  0  0
 20 21  1  0  0  0  0
 20 15  2  0  0  0  0
 23 22  1  0  0  0  0
M  END
>  <MODEL>
4

>  <REMARK>
 VINA RESULT:    -5.303      3.250      8.470
 INTER + INTRA:          -9.768
 INTER:                  -9.125
 INTRA:                  -0.643
 UNBOUND:                -2.294
  Name = CHEMBL1304274
  9 active torsions:
  status: ('A' for Active; 'I' for Inactive)
    1  A    between atoms: C_1  and  O_2
    2  A    between atoms: O_2  and  C_3
    3  A    between atoms: C_6  and  C_7
    4  A    between atoms: C_7  and  C_8
    5  A    between atoms: C_8  and  C_9
    6  A    between atoms: C_9  and  C_10
    7  A    between atoms: N_12  and  C_13
    8  A    between atoms: C_13  and  C_14
    9  A    between atoms: C_21  and  C_22
                            x       y       z     vdW  Elec       q    Type
                         _______ _______ _______ _____ _____    ______ ____

>  <TORSDO>
F 7

>  <SCORE>
-5.303

>  <RMSD_LB>
3.250

>  <RMSD_UB>
8.470

$$$$
CHEMBL1304274
 OpenBabel10172500183D

 23 24  0  0  0  0  0  0  0  0999 V2000
  140.4130  135.4780  148.1600 C   0  0  0  0  0  2  0  0  0  0  0  0
  138.9400  135.3020  147.8290 C   0  0  0  0  0  0  0  0  0  0  0  0
  138.0780  135.1690  148.6940 O   0  0  0  0  0  0  0  0  0  0  0  0
  138.6390  135.3100  146.4870 N   0  0  0  0  0  0  0  0  0  0  0  0
  139.3460  135.4740  145.8220 H   0  0  0  0  0  0  0  0  0  0  0  0
  137.2750  135.0750  146.0550 C   0  0  0  0  0  2  0  0  0  0  0  0
  137.1410  133.8380  145.2040 C   0  0  0  0  0  0  0  0  0  0  0  0
  137.2970  133.9010  143.8120 C   0  0  0  0  0  3  0  0  0  0  0  0
  137.2550  132.7360  143.0420 C   0  0  0  0  0  3  0  0  0  0  0  0
  137.0580  131.4990  143.6540 C   0  0  0  0  0  3  0  0  0  0  0  0
  136.9000  131.4250  145.0350 C   0  0  0  0  0  3  0  0  0  0  0  0
  136.9430  132.5880  145.8070 C   0  0  0  0  0  3  0  0  0  0  0  0
  140.6440  136.8140  148.8750 C   0  0  0  0  0  2  0  0  0  0  0  0
  141.4750  136.6930  150.1530 C   0  0  0  0  0  2  0  0  0  0  0  0
  139.4110  138.4730  153.5290 C   0  0  0  0  0  0  0  0  0  0  0  0
  138.6980  138.0330  152.4120 C   0  0  0  0  0  3  0  0  0  0  0  0
  139.3640  137.4490  151.3260 C   0  0  0  0  0  3  0  0  0  0  0  0
  140.7540  137.2960  151.3400 C   0  0  0  0  0  0  0  0  0  0  0  0
  141.4680  137.7550  152.4540 C   0  0  0  0  0  3  0  0  0  0  0  0
  140.8100  138.3460  153.5490 C   0  0  0  0  0  0  0  0  0  0  0  0
  141.6060  138.8230  154.7320 C   0  0  0  0  0  1  0  0  0  0  0  0
  137.8180  138.3520  155.2850 C   0  0  0  0  0  1  0  0  0  0  0  0
  138.8400  139.0820  154.6170 O   0  0  0  0  0  0  0  0  0  0  0  0
  1 13  1  0  0  0  0
  2  1  1  0  0  0  0
  2  3  2  0  0  0  0
  4  2  1  0  0  0  0
  5  4  1  0  0  0  0
  6  4  1  0  0  0  0
  7 12  1  0  0  0  0
  7  6  1  0  0  0  0
  8  7  2  0  0  0  0
  9 10  2  0  0  0  0
  9  8  1  0  0  0  0
 10 11  1  0  0  0  0
 11 12  2  0  0  0  0
 13 14  1  0  0  0  0
 14 18  1  0  0  0  0
 15 20  1  0  0  0  0
 15 23  1  0  0  0  0
 16 15  2  0  0  0  0
 17 18  2  0  0  0  0
 17 16  1  0  0  0  0
 18 19  1  0  0  0  0
 19 20  2  0  0  0  0
 20 21  1  0  0  0  0
 23 22  1  0  0  0  0
M  END
>  <MODEL>
5

>  <REMARK>
 VINA RESULT:    -5.248      4.094      9.268
 INTER + INTRA:          -9.690
 INTER:                  -9.026
 INTRA:                  -0.664
 UNBOUND:                -2.294
  Name = CHEMBL1304274
  9 active torsions:
  status: ('A' for Active; 'I' for Inactive)
    1  A    between atoms: C_1  and  O_2
    2  A    between atoms: O_2  and  C_3
    3  A    between atoms: C_6  and  C_7
    4  A    between atoms: C_7  and  C_8
    5  A    between atoms: C_8  and  C_9
    6  A    between atoms: C_9  and  C_10
    7  A    between atoms: N_12  and  C_13
    8  A    between atoms: C_13  and  C_14
    9  A    between atoms: C_21  and  C_22
                            x       y       z     vdW  Elec       q    Type
                         _______ _______ _______ _____ _____    ______ ____

>  <TORSDO>
F 7

>  <SCORE>
-5.248

>  <RMSD_LB>
4.094

>  <RMSD_UB>
9.268

$$$$
CHEMBL1304274
 OpenBabel10172500183D

 23 24  0  0  0  0  0  0  0  0999 V2000
  136.7450  136.6370  151.9730 C   0  0  0  0  0  2  0  0  0  0  0  0
  136.9440  136.1470  150.5480 C   0  0  0  0  0  0  0  0  0  0  0  0
  138.0550  136.0120  150.0420 O   0  0  0  0  0  0  0  0  0  0  0  0
  135.7860  135.8560  149.8640 N   0  0  0  0  0  0  0  0  0  0  0  0
  134.9150  135.9220  150.3170 H   0  0  0  0  0  0  0  0  0  0  0  0
  135.8560  135.4520  148.4740 C   0  0  0  0  0  2  0  0  0  0  0  0
  134.6870  135.9550  147.6650 C   0  0  0  0  0  0  0  0  0  0  0  0
  133.5930  136.5730  148.2880 C   0  0  0  0  0  3  0  0  0  0  0  0
  132.5550  137.1100  147.5230 C   0  0  0  0  0  3  0  0  0  0  0  0
  132.5990  137.0360  146.1320 C   0  0  0  0  0  3  0  0  0  0  0  0
  133.6800  136.4230  145.5030 C   0  0  0  0  0  3  0  0  0  0  0  0
  134.7190  135.8870  146.2650 C   0  0  0  0  0  3  0  0  0  0  0  0
  135.4980  135.9940  152.5890 C   0  0  0  0  0  2  0  0  0  0  0  0
  135.8000  134.7710  153.4570 C   0  0  0  0  0  2  0  0  0  0  0  0
  136.0360  135.7800  157.6700 C   0  0  0  0  0  0  0  0  0  0  0  0
  137.0420  136.1780  156.7870 C   0  0  0  0  0  3  0  0  0  0  0  0
  136.9600  135.8610  155.4250 C   0  0  0  0  0  3  0  0  0  0  0  0
  135.8720  135.1390  154.9230 C   0  0  0  0  0  0  0  0  0  0  0  0
  134.8740  134.7260  155.8150 C   0  0  0  0  0  3  0  0  0  0  0  0
  134.9470  135.0360  157.1870 C   0  0  0  0  0  0  0  0  0  0  0  0
  133.8560  134.5810  158.1160 C   0  0  0  0  0  1  0  0  0  0  0  0
  135.8290  137.3670  159.4240 C   0  0  0  0  0  1  0  0  0  0  0  0
  136.0550  136.0210  159.0200 O   0  0  0  0  0  0  0  0  0  0  0  0
  1 13  1  0  0  0  0
  2  1  1  0  0  0  0
  3  2  2  0  0  0  0
  4  5  1  0  0  0  0
  4  2  1  0  0  0  0
  6  4  1  0  0  0  0
  7  8  1  0  0  0  0
  7  6  1  0  0  0  0
  9  8  2  0  0  0  0
 10  9  1  0  0  0  0
 11 10  2  0  0  0  0
 11 12  1  0  0  0  0
 12  7  2  0  0  0  0
 13 14  1  0  0  0  0
 14 18  1  0  0  0  0
 15 23  1  0  0  0  0
 16 15  2  0  0  0  0
 17 16  1  0  0  0  0
 18 17  2  0  0  0  0
 18 19  1  0  0  0  0
 19 20  2  0  0  0  0
 20 15  1  0  0  0  0
 20 21  1  0  0  0  0
 23 22  1  0  0  0  0
M  END
>  <MODEL>
6

>  <REMARK>
 VINA RESULT:    -5.144      2.760      7.758
 INTER + INTRA:          -9.544
 INTER:                  -8.957
 INTRA:                  -0.587
 UNBOUND:                -2.294
  Name = CHEMBL1304274
  9 active torsions:
  status: ('A' for Active; 'I' for Inactive)
    1  A    between atoms: C_1  and  O_2
    2  A    between atoms: O_2  and  C_3
    3  A    between atoms: C_6  and  C_7
    4  A    between atoms: C_7  and  C_8
    5  A    between atoms: C_8  and  C_9
    6  A    between atoms: C_9  and  C_10
    7  A    between atoms: N_12  and  C_13
    8  A    between atoms: C_13  and  C_14
    9  A    between atoms: C_21  and  C_22
                            x       y       z     vdW  Elec       q    Type
                         _______ _______ _______ _____ _____    ______ ____

>  <TORSDO>
F 7

>  <SCORE>
-5.144

>  <RMSD_LB>
2.760

>  <RMSD_UB>
7.758

$$$$
CHEMBL1304274
 OpenBabel10172500183D

 23 24  0  0  0  0  0  0  0  0999 V2000
  132.6460  137.0470  147.2980 C   0  0  0  0  0  2  0  0  0  0  0  0
  133.8900  136.4790  147.9610 C   0  0  0  0  0  0  0  0  0  0  0  0
  134.7920  137.1890  148.3980 O   0  0  0  0  0  0  0  0  0  0  0  0
  133.9310  135.1060  148.0450 N   0  0  0  0  0  0  0  0  0  0  0  0
  133.1670  134.5690  147.7350 H   0  0  0  0  0  0  0  0  0  0  0  0
  135.1050  134.4540  148.5920 C   0  0  0  0  0  2  0  0  0  0  0  0
  135.0190  134.2630  150.0850 C   0  0  0  0  0  0  0  0  0  0  0  0
  136.0910  134.6100  150.9190 C   0  0  0  0  0  3  0  0  0  0  0  0
  135.9700  134.5070  152.3070 C   0  0  0  0  0  3  0  0  0  0  0  0
  134.7780  134.0580  152.8740 C   0  0  0  0  0  3  0  0  0  0  0  0
  133.7080  133.7080  152.0550 C   0  0  0  0  0  3  0  0  0  0  0  0
  133.8260  133.8110  150.6680 C   0  0  0  0  0  3  0  0  0  0  0  0
  132.7120  136.8480  145.7800 C   0  0  0  0  0  2  0  0  0  0  0  0
  133.8450  137.6240  145.1060 C   0  0  0  0  0  2  0  0  0  0  0  0
  136.2430  135.0020  142.6150 C   0  0  0  0  0  0  0  0  0  0  0  0
  135.8470  136.2580  142.1490 C   0  0  0  0  0  3  0  0  0  0  0  0
  135.0810  137.1080  142.9580 C   0  0  0  0  0  3  0  0  0  0  0  0
  134.6980  136.7170  144.2450 C   0  0  0  0  0  0  0  0  0  0  0  0
  135.0820  135.4490  144.7020 C   0  0  0  0  0  3  0  0  0  0  0  0
  135.8490  134.5850  143.8970 C   0  0  0  0  0  0  0  0  0  0  0  0
  136.2490  133.2330  144.4200 C   0  0  0  0  0  1  0  0  0  0  0  0
  138.2250  134.5460  141.3890 C   0  0  0  0  0  1  0  0  0  0  0  0
  136.9650  134.0990  141.8770 O   0  0  0  0  0  0  0  0  0  0  0  0
  1  2  1  0  0  0  0
  2  4  1  0  0  0  0
  2  3  2  0  0  0  0
  4  6  1  0  0  0  0
  5  4  1  0  0  0  0
  6  7  1  0  0  0  0
  7 12  2  0  0  0  0
  7  8  1  0  0  0  0
  8  9  2  0  0  0  0
  9 10  1  0  0  0  0
 11 10  2  0  0  0  0
 12 11  1  0  0  0  0
 13  1  1  0  0  0  0
 14 13  1  0  0  0  0
 15 20  1  0  0  0  0
 16 15  2  0  0  0  0
 16 17  1  0  0  0  0
 17 18  2  0  0  0  0
 18 19  1  0  0  0  0
 18 14  1  0  0  0  0
 20 21  1  0  0  0  0
 20 19  2  0  0  0  0
 22 23  1  0  0  0  0
 23 15  1  0  0  0  0
M  END
>  <MODEL>
7

>  <REMARK>
 VINA RESULT:    -4.800      4.167      7.419
 INTER + INTRA:          -9.059
 INTER:                  -8.203
 INTRA:                  -0.856
 UNBOUND:                -2.294
  Name = CHEMBL1304274
  9 active torsions:
  status: ('A' for Active; 'I' for Inactive)
    1  A    between atoms: C_1  and  O_2
    2  A    between atoms: O_2  and  C_3
    3  A    between atoms: C_6  and  C_7
    4  A    between atoms: C_7  and  C_8
    5  A    between atoms: C_8  and  C_9
    6  A    between atoms: C_9  and  C_10
    7  A    between atoms: N_12  and  C_13
    8  A    between atoms: C_13  and  C_14
    9  A    between atoms: C_21  and  C_22
                            x       y       z     vdW  Elec       q    Type
                         _______ _______ _______ _____ _____    ______ ____

>  <TORSDO>
F 7

>  <SCORE>
-4.800

>  <RMSD_LB>
4.167

>  <RMSD_UB>
7.419

$$$$
CHEMBL1304274
 OpenBabel10172500183D

 23 24  0  0  0  0  0  0  0  0999 V2000
  135.5680  138.8410  145.7310 C   0  0  0  0  0  2  0  0  0  0  0  0
  136.0600  137.9190  146.8340 C   0  0  0  0  0  0  0  0  0  0  0  0
  137.1730  137.4000  146.8180 O   0  0  0  0  0  0  0  0  0  0  0  0
  135.1680  137.7110  147.8620 N   0  0  0  0  0  0  0  0  0  0  0  0
  134.3060  138.1860  147.8710 H   0  0  0  0  0  0  0  0  0  0  0  0
  135.5040  136.7900  148.9300 C   0  0  0  0  0  2  0  0  0  0  0  0
  134.6190  135.5700  148.9420 C   0  0  0  0  0  0  0  0  0  0  0  0
  133.5600  135.4390  148.0330 C   0  0  0  0  0  3  0  0  0  0  0  0
  132.7990  134.2680  147.9970 C   0  0  0  0  0  3  0  0  0  0  0  0
  133.0890  133.2180  148.8670 C   0  0  0  0  0  3  0  0  0  0  0  0
  134.1370  133.3370  149.7750 C   0  0  0  0  0  3  0  0  0  0  0  0
  134.9000  134.5060  149.8120 C   0  0  0  0  0  3  0  0  0  0  0  0
  134.0810  138.5980  145.4550 C   0  0  0  0  0  2  0  0  0  0  0  0
  133.3810  139.7730  144.7700 C   0  0  0  0  0  2  0  0  0  0  0  0
  132.5970  138.9850  140.5760 C   0  0  0  0  0  0  0  0  0  0  0  0
  133.8830  139.3170  141.0080 C   0  0  0  0  0  3  0  0  0  0  0  0
  134.1370  139.5610  142.3640 C   0  0  0  0  0  3  0  0  0  0  0  0
  133.1100  139.4790  143.3100 C   0  0  0  0  0  0  0  0  0  0  0  0
  131.8180  139.1630  142.8700 C   0  0  0  0  0  3  0  0  0  0  0  0
  131.5500  138.9180  141.5100 C   0  0  0  0  0  0  0  0  0  0  0  0
  130.1530  138.5760  141.0730 C   0  0  0  0  0  1  0  0  0  0  0  0
  132.4810  139.8390  138.3640 C   0  0  0  0  0  1  0  0  0  0  0  0
  132.2580  138.7620  139.2660 O   0  0  0  0  0  0  0  0  0  0  0  0
  1  2  1  0  0  0  0
  2  4  1  0  0  0  0
  3  2  2  0  0  0  0
  4  5  1  0  0  0  0
  4  6  1  0  0  0  0
  6  7  1  0  0  0  0
  7 12  1  0  0  0  0
  8  7  2  0  0  0  0
  9  8  1  0  0  0  0
  9 10  2  0  0  0  0
 10 11  1  0  0  0  0
 11 12  2  0  0  0  0
 13  1  1  0  0  0  0
 14 13  1  0  0  0  0
 15 16  2  0  0  0  0
 15 20  1  0  0  0  0
 16 17  1  0  0  0  0
 17 18  2  0  0  0  0
 18 14  1  0  0  0  0
 19 18  1  0  0  0  0
 20 19  2  0  0  0  0
 21 20  1  0  0  0  0
 22 23  1  0  0  0  0
 23 15  1  0  0  0  0
M  END
>  <MODEL>
8

>  <REMARK>
 VINA RESULT:    -4.785      6.193      9.567
 INTER + INTRA:          -9.037
 INTER:                  -8.280
 INTRA:                  -0.757
 UNBOUND:                -2.294
  Name = CHEMBL1304274
  9 active torsions:
  status: ('A' for Active; 'I' for Inactive)
    1  A    between atoms: C_1  and  O_2
    2  A    between atoms: O_2  and  C_3
    3  A    between atoms: C_6  and  C_7
    4  A    between atoms: C_7  and  C_8
    5  A    between atoms: C_8  and  C_9
    6  A    between atoms: C_9  and  C_10
    7  A    between atoms: N_12  and  C_13
    8  A    between atoms: C_13  and  C_14
    9  A    between atoms: C_21  and  C_22
                            x       y       z     vdW  Elec       q    Type
                         _______ _______ _______ _____ _____    ______ ____

>  <TORSDO>
F 7

>  <SCORE>
-4.785

>  <RMSD_LB>
6.193

>  <RMSD_UB>
9.567

$$$$
CHEMBL1304274
 OpenBabel10172500183D

 23 24  0  0  0  0  0  0  0  0999 V2000
  119.5410  137.0630  152.1020 C   0  0  0  0  0  2  0  0  0  0  0  0
  120.8750  137.2550  152.8030 C   0  0  0  0  0  0  0  0  0  0  0  0
  121.8850  136.6290  152.4920 O   0  0  0  0  0  0  0  0  0  0  0  0
  120.8750  138.1920  153.8110 N   0  0  0  0  0  0  0  0  0  0  0  0
  120.0620  138.7160  153.9980 H   0  0  0  0  0  0  0  0  0  0  0  0
  122.0750  138.4030  154.5970 C   0  0  0  0  0  2  0  0  0  0  0  0
  121.7770  138.9130  155.9830 C   0  0  0  0  0  0  0  0  0  0  0  0
  121.0200  140.0770  156.1760 C   0  0  0  0  0  3  0  0  0  0  0  0
  120.6780  140.4950  157.4650 C   0  0  0  0  0  3  0  0  0  0  0  0
  121.0890  139.7540  158.5720 C   0  0  0  0  0  3  0  0  0  0  0  0
  121.8430  138.5970  158.3930 C   0  0  0  0  0  3  0  0  0  0  0  0
  122.1840  138.1770  157.1060 C   0  0  0  0  0  3  0  0  0  0  0  0
  118.4140  136.9160  153.1290 C   0  0  0  0  0  2  0  0  0  0  0  0
  118.5880  135.7230  154.0700 C   0  0  0  0  0  2  0  0  0  0  0  0
  118.7230  136.9580  158.2270 C   0  0  0  0  0  0  0  0  0  0  0  0
  119.3600  135.7860  157.8130 C   0  0  0  0  0  3  0  0  0  0  0  0
  119.3240  135.3930  156.4690 C   0  0  0  0  0  3  0  0  0  0  0  0
  118.6510  136.1650  155.5160 C   0  0  0  0  0  0  0  0  0  0  0  0
  117.9980  137.3300  155.9380 C   0  0  0  0  0  3  0  0  0  0  0  0
  118.0250  137.7330  157.2870 C   0  0  0  0  0  0  0  0  0  0  0  0
  117.3180  138.9930  157.7050 C   0  0  0  0  0  1  0  0  0  0  0  0
  118.2250  136.4600  160.4940 C   0  0  0  0  0  1  0  0  0  0  0  0
  118.6830  137.3960  159.5250 O   0  0  0  0  0  0  0  0  0  0  0  0
  1  2  1  0  0  0  0
  1 13  1  0  0  0  0
  2  4  1  0  0  0  0
  3  2  2  0  0  0  0
  4  5  1  0  0  0  0
  4  6  1  0  0  0  0
  6  7  1  0  0  0  0
  7  8  2  0  0  0  0
  7 12  1  0  0  0  0
  8  9  1  0  0  0  0
  9 10  2  0  0  0  0
 11 10  1  0  0  0  0
 12 11  2  0  0  0  0
 13 14  1  0  0  0  0
 14 18  1  0  0  0  0
 15 23  1  0  0  0  0
 16 15  1  0  0  0  0
 17 16  2  0  0  0  0
 18 19  2  0  0  0  0
 18 17  1  0  0  0  0
 19 20  1  0  0  0  0
 20 21  1  0  0  0  0
 20 15  2  0  0  0  0
 23 22  1  0  0  0  0
M  END
>  <MODEL>
9

>  <REMARK>
 VINA RESULT:    -4.501     15.311     17.890
 INTER + INTRA:          -8.637
 INTER:                  -6.343
 INTRA:                  -2.294
 UNBOUND:                -2.294
  Name = CHEMBL1304274
  9 active torsions:
  status: ('A' for Active; 'I' for Inactive)
    1  A    between atoms: C_1  and  O_2
    2  A    between atoms: O_2  and  C_3
    3  A    between atoms: C_6  and  C_7
    4  A    between atoms: C_7  and  C_8
    5  A    between atoms: C_8  and  C_9
    6  A    between atoms: C_9  and  C_10
    7  A    between atoms: N_12  and  C_13
    8  A    between atoms: C_13  and  C_14
    9  A    between atoms: C_21  and  C_22
                            x       y       z     vdW  Elec       q    Type
                         _______ _______ _______ _____ _____    ______ ____

>  <TORSDO>
F 7

>  <SCORE>
-4.501

>  <RMSD_LB>
15.311

>  <RMSD_UB>
17.890

$$$$
