CHEMBL4442939
 OpenBabel10162523463D

 27 28  0  0  0  0  0  0  0  0999 V2000
  138.7860  137.5550  155.4360 N   0  0  0  0  0  0  0  0  0  0  0  0
  139.4010  138.4980  154.6470 C   0  0  0  0  0  0  0  0  0  0  0  0
  138.8620  139.5270  154.2520 O   0  0  0  0  0  0  0  0  0  0  0  0
  139.3050  136.7760  155.7370 H   0  0  0  0  0  0  0  0  0  0  0  0
  140.8020  138.1490  154.3070 C   0  0  0  0  0  3  0  0  0  0  0  0
  141.1620  137.8570  153.0440 C   0  0  0  0  0  3  0  0  0  0  0  0
  142.5350  137.4930  152.6530 C   0  0  0  0  0  0  0  0  0  0  0  0
  142.8490  137.2520  151.3150 C   0  0  0  0  0  3  0  0  0  0  0  0
  144.1610  136.9250  150.9340 C   0  0  0  0  0  3  0  0  0  0  0  0
  145.1910  136.8450  151.8800 C   0  0  0  0  0  0  0  0  0  0  0  0
  144.8890  137.0980  153.2280 C   0  0  0  0  0  0  0  0  0  0  0  0
  143.5700  137.4250  153.5950 C   0  0  0  0  0  3  0  0  0  0  0  0
  146.4830  136.5360  151.5620 O   0  0  0  0  0  0  0  0  0  0  0  0
  147.0990  137.1850  150.4610 C   0  0  0  0  0  1  0  0  0  0  0  0
  145.7290  137.0790  154.3130 O   0  0  0  0  0  0  0  0  0  0  0  0
  146.2690  138.3080  154.7780 C   0  0  0  0  0  1  0  0  0  0  0  0
  137.3970  137.6700  155.8390 C   0  0  0  0  0  2  0  0  0  0  0  0
  134.7920  134.8500  155.7110 C   0  0  0  0  0  0  0  0  0  0  0  0
  135.6360  135.8640  156.1880 C   0  0  0  0  0  3  0  0  0  0  0  0
  136.5200  136.5450  155.3320 C   0  0  0  0  0  0  0  0  0  0  0  0
  136.5280  136.2000  153.9720 C   0  0  0  0  0  3  0  0  0  0  0  0
  135.6950  135.1920  153.4820 C   0  0  0  0  0  3  0  0  0  0  0  0
  134.8360  134.5200  154.3510 C   0  0  0  0  0  0  0  0  0  0  0  0
  133.8280  134.4930  157.8590 C   0  0  0  0  0  1  0  0  0  0  0  0
  133.9070  134.1420  156.4840 O   0  0  0  0  0  0  0  0  0  0  0  0
  134.0220  133.5270  153.8720 O   0  0  0  0  0  0  0  0  0  0  0  0
  133.6340  133.6090  153.0230 H   0  0  0  0  0  0  0  0  0  0  0  0
  1  4  1  0  0  0  0
  1 17  1  0  0  0  0
  2  1  1  0  0  0  0
  3  2  2  0  0  0  0
  5  2  1  0  0  0  0
  6  5  2  0  0  0  0
  7  6  1  0  0  0  0
  7 12  1  0  0  0  0
  8  7  2  0  0  0  0
  9  8  1  0  0  0  0
  9 10  2  0  0  0  0
 10 11  1  0  0  0  0
 11 12  2  0  0  0  0
 11 15  1  0  0  0  0
 13 10  1  0  0  0  0
 14 13  1  0  0  0  0
 15 16  1  0  0  0  0
 18 19  1  0  0  0  0
 18 25  1  0  0  0  0
 20 17  1  0  0  0  0
 20 19  2  0  0  0  0
 21 20  1  0  0  0  0
 22 21  2  0  0  0  0
 22 23  1  0  0  0  0
 23 18  2  0  0  0  0
 25 24  1  0  0  0  0
 26 23  1  0  0  0  0
 27 26  1  0  0  0  0
M  END
>  <MODEL>
1

>  <REMARK>
 VINA RESULT:    -7.411      0.000      0.000
 INTER + INTRA:         -11.384
 INTER:                 -10.774
 INTRA:                  -0.610
 UNBOUND:                -0.724
  Name = CHEMBL4442939
  11 active torsions:
  status: ('A' for Active; 'I' for Inactive)
    1  A    between atoms: C_1  and  O_2
    2  A    between atoms: O_2  and  C_3
    3  A    between atoms: C_5  and  C_6
    4  A    between atoms: C_6  and  N_7
    5  A    between atoms: C_8  and  C_10
    6  A    between atoms: C_11  and  C_12
    7  A    between atoms: C_15  and  O_16
    8  A    between atoms: O_16  and  C_17
    9  A    between atoms: C_18  and  O_19
   10  A    between atoms: O_19  and  C_20
   11  A    between atoms: C_24  and  O_25
                            x       y       z     vdW  Elec       q    Type
                         _______ _______ _______ _____ _____    ______ ____

>  <TORSDO>
F 8

>  <SCORE>
-7.411

>  <RMSD_LB>
0.000

>  <RMSD_UB>
0.000

$$$$
CHEMBL4442939
 OpenBabel10162523463D

 27 28  0  0  0  0  0  0  0  0999 V2000
  135.6680  135.3090  154.0950 N   0  0  0  0  0  0  0  0  0  0  0  0
  134.8020  134.2540  153.9380 C   0  0  0  0  0  0  0  0  0  0  0  0
  134.1820  133.7250  154.8550 O   0  0  0  0  0  0  0  0  0  0  0  0
  136.0970  135.6960  153.2980 H   0  0  0  0  0  0  0  0  0  0  0  0
  134.6840  133.8010  152.5300 C   0  0  0  0  0  3  0  0  0  0  0  0
  134.2390  134.6270  151.5660 C   0  0  0  0  0  3  0  0  0  0  0  0
  134.0910  134.2260  150.1550 C   0  0  0  0  0  0  0  0  0  0  0  0
  134.1010  132.8770  149.8000 C   0  0  0  0  0  3  0  0  0  0  0  0
  133.9380  132.4880  148.4590 C   0  0  0  0  0  3  0  0  0  0  0  0
  133.7480  133.4380  147.4480 C   0  0  0  0  0  0  0  0  0  0  0  0
  133.7240  134.7990  147.7960 C   0  0  0  0  0  0  0  0  0  0  0  0
  133.8870  135.1730  149.1440 C   0  0  0  0  0  3  0  0  0  0  0  0
  133.5810  133.1130  146.1320 O   0  0  0  0  0  0  0  0  0  0  0  0
  134.6780  133.2430  145.2410 C   0  0  0  0  0  1  0  0  0  0  0  0
  133.5510  135.8890  146.9820 O   0  0  0  0  0  0  0  0  0  0  0  0
  132.3710  136.6660  147.1250 C   0  0  0  0  0  1  0  0  0  0  0  0
  135.9740  135.8720  155.3970 C   0  0  0  0  0  2  0  0  0  0  0  0
  138.9150  138.1450  154.4270 C   0  0  0  0  0  0  0  0  0  0  0  0
  137.7170  137.4170  154.3680 C   0  0  0  0  0  3  0  0  0  0  0  0
  137.2900  136.6190  155.4440 C   0  0  0  0  0  0  0  0  0  0  0  0
  138.0840  136.5790  156.6000 C   0  0  0  0  0  3  0  0  0  0  0  0
  139.2800  137.2970  156.6750 C   0  0  0  0  0  3  0  0  0  0  0  0
  139.6920  138.0710  155.5900 C   0  0  0  0  0  0  0  0  0  0  0  0
  139.8500  138.2850  152.2420 C   0  0  0  0  0  1  0  0  0  0  0  0
  139.3970  138.9410  153.4200 O   0  0  0  0  0  0  0  0  0  0  0  0
  140.8680  138.7710  155.6610 O   0  0  0  0  0  0  0  0  0  0  0  0
  140.9300  139.5290  156.2080 H   0  0  0  0  0  0  0  0  0  0  0  0
  1 17  1  0  0  0  0
  2  1  1  0  0  0  0
  2  3  2  0  0  0  0
  4  1  1  0  0  0  0
  5  2  1  0  0  0  0
  6  5  2  0  0  0  0
  7  6  1  0  0  0  0
  8  7  1  0  0  0  0
  9  8  2  0  0  0  0
 10 11  2  0  0  0  0
 10  9  1  0  0  0  0
 11 12  1  0  0  0  0
 12  7  2  0  0  0  0
 13 10  1  0  0  0  0
 14 13  1  0  0  0  0
 15 16  1  0  0  0  0
 15 11  1  0  0  0  0
 17 20  1  0  0  0  0
 18 23  1  0  0  0  0
 19 18  2  0  0  0  0
 19 20  1  0  0  0  0
 20 21  2  0  0  0  0
 21 22  1  0  0  0  0
 23 26  1  0  0  0  0
 23 22  2  0  0  0  0
 24 25  1  0  0  0  0
 25 18  1  0  0  0  0
 26 27  1  0  0  0  0
M  END
>  <MODEL>
2

>  <REMARK>
 VINA RESULT:    -7.398      4.306      9.368
 INTER + INTRA:         -11.365
 INTER:                 -10.795
 INTRA:                  -0.569
 UNBOUND:                -0.724
  Name = CHEMBL4442939
  11 active torsions:
  status: ('A' for Active; 'I' for Inactive)
    1  A    between atoms: C_1  and  O_2
    2  A    between atoms: O_2  and  C_3
    3  A    between atoms: C_5  and  C_6
    4  A    between atoms: C_6  and  N_7
    5  A    between atoms: C_8  and  C_10
    6  A    between atoms: C_11  and  C_12
    7  A    between atoms: C_15  and  O_16
    8  A    between atoms: O_16  and  C_17
    9  A    between atoms: C_18  and  O_19
   10  A    between atoms: O_19  and  C_20
   11  A    between atoms: C_24  and  O_25
                            x       y       z     vdW  Elec       q    Type
                         _______ _______ _______ _____ _____    ______ ____

>  <TORSDO>
F 8

>  <SCORE>
-7.398

>  <RMSD_LB>
4.306

>  <RMSD_UB>
9.368

$$$$
CHEMBL4442939
 OpenBabel10162523463D

 27 28  0  0  0  0  0  0  0  0999 V2000
  138.9310  137.5320  155.2720 N   0  0  0  0  0  0  0  0  0  0  0  0
  139.4100  138.5550  154.4880 C   0  0  0  0  0  0  0  0  0  0  0  0
  138.8300  139.6210  154.3110 O   0  0  0  0  0  0  0  0  0  0  0  0
  139.4800  136.7240  155.3870 H   0  0  0  0  0  0  0  0  0  0  0  0
  140.7170  138.2430  153.8580 C   0  0  0  0  0  3  0  0  0  0  0  0
  140.7910  137.7620  152.6040 C   0  0  0  0  0  3  0  0  0  0  0  0
  142.0610  137.4240  151.9360 C   0  0  0  0  0  0  0  0  0  0  0  0
  143.2670  137.4950  152.6330 C   0  0  0  0  0  3  0  0  0  0  0  0
  144.4780  137.1530  152.0070 C   0  0  0  0  0  3  0  0  0  0  0  0
  144.5070  136.7210  150.6760 C   0  0  0  0  0  0  0  0  0  0  0  0
  143.2970  136.6330  149.9680 C   0  0  0  0  0  0  0  0  0  0  0  0
  142.0920  136.9780  150.6080 C   0  0  0  0  0  3  0  0  0  0  0  0
  145.6560  136.3730  150.0230 O   0  0  0  0  0  0  0  0  0  0  0  0
  146.7580  135.8870  150.7720 C   0  0  0  0  0  1  0  0  0  0  0  0
  143.0900  136.2370  148.6710 O   0  0  0  0  0  0  0  0  0  0  0  0
  142.8420  134.8630  148.4100 C   0  0  0  0  0  1  0  0  0  0  0  0
  137.6430  137.6050  155.9350 C   0  0  0  0  0  2  0  0  0  0  0  0
  134.8540  134.9630  155.9300 C   0  0  0  0  0  0  0  0  0  0  0  0
  135.7980  135.9040  156.3690 C   0  0  0  0  0  3  0  0  0  0  0  0
  136.6570  136.5560  155.4660 C   0  0  0  0  0  0  0  0  0  0  0  0
  136.5370  136.2590  154.1000 C   0  0  0  0  0  3  0  0  0  0  0  0
  135.6030  135.3240  153.6480 C   0  0  0  0  0  3  0  0  0  0  0  0
  134.7700  134.6790  154.5620 C   0  0  0  0  0  0  0  0  0  0  0  0
  133.9800  134.6510  158.1230 C   0  0  0  0  0  1  0  0  0  0  0  0
  133.9860  134.2870  156.7490 O   0  0  0  0  0  0  0  0  0  0  0  0
  133.8580  133.7580  154.1190 O   0  0  0  0  0  0  0  0  0  0  0  0
  133.1030  133.5590  154.6380 H   0  0  0  0  0  0  0  0  0  0  0  0
  1  4  1  0  0  0  0
  1 17  1  0  0  0  0
  2  1  1  0  0  0  0
  3  2  2  0  0  0  0
  5  2  1  0  0  0  0
  6  5  2  0  0  0  0
  7  6  1  0  0  0  0
  7  8  1  0  0  0  0
  9  8  2  0  0  0  0
 10  9  1  0  0  0  0
 11 12  1  0  0  0  0
 11 10  2  0  0  0  0
 12  7  2  0  0  0  0
 13 10  1  0  0  0  0
 13 14  1  0  0  0  0
 15 11  1  0  0  0  0
 16 15  1  0  0  0  0
 18 19  1  0  0  0  0
 18 25  1  0  0  0  0
 20 17  1  0  0  0  0
 20 19  2  0  0  0  0
 21 20  1  0  0  0  0
 22 21  2  0  0  0  0
 22 23  1  0  0  0  0
 23 18  2  0  0  0  0
 25 24  1  0  0  0  0
 26 23  1  0  0  0  0
 26 27  1  0  0  0  0
M  END
>  <MODEL>
3

>  <REMARK>
 VINA RESULT:    -7.256      1.323      2.372
 INTER + INTRA:         -11.161
 INTER:                 -10.526
 INTRA:                  -0.634
 UNBOUND:                -0.724
  Name = CHEMBL4442939
  11 active torsions:
  status: ('A' for Active; 'I' for Inactive)
    1  A    between atoms: C_1  and  O_2
    2  A    between atoms: O_2  and  C_3
    3  A    between atoms: C_5  and  C_6
    4  A    between atoms: C_6  and  N_7
    5  A    between atoms: C_8  and  C_10
    6  A    between atoms: C_11  and  C_12
    7  A    between atoms: C_15  and  O_16
    8  A    between atoms: O_16  and  C_17
    9  A    between atoms: C_18  and  O_19
   10  A    between atoms: O_19  and  C_20
   11  A    between atoms: C_24  and  O_25
                            x       y       z     vdW  Elec       q    Type
                         _______ _______ _______ _____ _____    ______ ____

>  <TORSDO>
F 8

>  <SCORE>
-7.256

>  <RMSD_LB>
1.323

>  <RMSD_UB>
2.372

$$$$
CHEMBL4442939
 OpenBabel10162523463D

 27 28  0  0  0  0  0  0  0  0999 V2000
  134.9490  134.6940  154.9930 N   0  0  0  0  0  0  0  0  0  0  0  0
  133.8510  135.1860  154.3290 C   0  0  0  0  0  0  0  0  0  0  0  0
  132.8210  135.5640  154.8790 O   0  0  0  0  0  0  0  0  0  0  0  0
  135.7470  134.4470  154.4740 H   0  0  0  0  0  0  0  0  0  0  0  0
  134.0250  135.2140  152.8560 C   0  0  0  0  0  3  0  0  0  0  0  0
  133.5750  134.2100  152.0800 C   0  0  0  0  0  3  0  0  0  0  0  0
  133.7320  134.1820  150.6150 C   0  0  0  0  0  0  0  0  0  0  0  0
  133.9200  132.9710  149.9490 C   0  0  0  0  0  3  0  0  0  0  0  0
  134.0490  132.9350  148.5500 C   0  0  0  0  0  3  0  0  0  0  0  0
  133.9790  134.1070  147.7870 C   0  0  0  0  0  0  0  0  0  0  0  0
  133.7770  135.3310  148.4460 C   0  0  0  0  0  0  0  0  0  0  0  0
  133.6500  135.3510  149.8480 C   0  0  0  0  0  3  0  0  0  0  0  0
  134.0930  134.1270  146.4250 O   0  0  0  0  0  0  0  0  0  0  0  0
  135.0000  133.2380  145.7940 C   0  0  0  0  0  1  0  0  0  0  0  0
  133.6750  136.5890  147.9080 O   0  0  0  0  0  0  0  0  0  0  0  0
  132.4430  136.9810  147.3210 C   0  0  0  0  0  1  0  0  0  0  0  0
  134.9710  134.5270  156.4340 C   0  0  0  0  0  2  0  0  0  0  0  0
  137.2930  137.5110  157.1170 C   0  0  0  0  0  0  0  0  0  0  0  0
  136.5610  136.5170  156.4500 C   0  0  0  0  0  3  0  0  0  0  0  0
  135.7970  135.5700  157.1560 C   0  0  0  0  0  0  0  0  0  0  0  0
  135.7660  135.6510  158.5560 C   0  0  0  0  0  3  0  0  0  0  0  0
  136.4900  136.6340  159.2350 C   0  0  0  0  0  3  0  0  0  0  0  0
  137.2510  137.5540  158.5160 C   0  0  0  0  0  0  0  0  0  0  0  0
  138.0570  138.4710  155.0770 C   0  0  0  0  0  1  0  0  0  0  0  0
  138.0600  138.4640  156.4980 O   0  0  0  0  0  0  0  0  0  0  0  0
  137.9670  138.5150  159.1810 O   0  0  0  0  0  0  0  0  0  0  0  0
  138.1520  139.3340  158.7650 H   0  0  0  0  0  0  0  0  0  0  0  0
  1 17  1  0  0  0  0
  2  3  2  0  0  0  0
  2  1  1  0  0  0  0
  4  1  1  0  0  0  0
  5  2  1  0  0  0  0
  6  5  2  0  0  0  0
  7  6  1  0  0  0  0
  8  7  1  0  0  0  0
  9  8  2  0  0  0  0
 10 11  2  0  0  0  0
 10  9  1  0  0  0  0
 11 12  1  0  0  0  0
 12  7  2  0  0  0  0
 13 10  1  0  0  0  0
 14 13  1  0  0  0  0
 15 11  1  0  0  0  0
 16 15  1  0  0  0  0
 17 20  1  0  0  0  0
 18 23  1  0  0  0  0
 19 18  2  0  0  0  0
 19 20  1  0  0  0  0
 20 21  2  0  0  0  0
 21 22  1  0  0  0  0
 23 26  1  0  0  0  0
 23 22  2  0  0  0  0
 24 25  1  0  0  0  0
 25 18  1  0  0  0  0
 27 26  1  0  0  0  0
M  END
>  <MODEL>
4

>  <REMARK>
 VINA RESULT:    -7.211      5.269      9.070
 INTER + INTRA:         -11.097
 INTER:                 -10.537
 INTRA:                  -0.560
 UNBOUND:                -0.724
  Name = CHEMBL4442939
  11 active torsions:
  status: ('A' for Active; 'I' for Inactive)
    1  A    between atoms: C_1  and  O_2
    2  A    between atoms: O_2  and  C_3
    3  A    between atoms: C_5  and  C_6
    4  A    between atoms: C_6  and  N_7
    5  A    between atoms: C_8  and  C_10
    6  A    between atoms: C_11  and  C_12
    7  A    between atoms: C_15  and  O_16
    8  A    between atoms: O_16  and  C_17
    9  A    between atoms: C_18  and  O_19
   10  A    between atoms: O_19  and  C_20
   11  A    between atoms: C_24  and  O_25
                            x       y       z     vdW  Elec       q    Type
                         _______ _______ _______ _____ _____    ______ ____

>  <TORSDO>
F 8

>  <SCORE>
-7.211

>  <RMSD_LB>
5.269

>  <RMSD_UB>
9.070

$$$$
CHEMBL4442939
 OpenBabel10162523463D

 27 28  0  0  0  0  0  0  0  0999 V2000
  138.8460  137.5560  155.5100 N   0  0  0  0  0  0  0  0  0  0  0  0
  139.3690  138.4990  154.6580 C   0  0  0  0  0  0  0  0  0  0  0  0
  138.7660  139.4950  154.2730 O   0  0  0  0  0  0  0  0  0  0  0  0
  139.4140  136.8060  155.7960 H   0  0  0  0  0  0  0  0  0  0  0  0
  140.7580  138.1940  154.2340 C   0  0  0  0  0  3  0  0  0  0  0  0
  141.7990  138.9250  154.6740 C   0  0  0  0  0  3  0  0  0  0  0  0
  143.1950  138.6740  154.2750 C   0  0  0  0  0  0  0  0  0  0  0  0
  143.5400  137.4960  153.6110 C   0  0  0  0  0  3  0  0  0  0  0  0
  144.8660  137.2620  153.2090 C   0  0  0  0  0  3  0  0  0  0  0  0
  145.8730  138.2040  153.4510 C   0  0  0  0  0  0  0  0  0  0  0  0
  145.5350  139.3990  154.1070 C   0  0  0  0  0  0  0  0  0  0  0  0
  144.2020  139.6210  154.5030 C   0  0  0  0  0  3  0  0  0  0  0  0
  147.1750  138.0270  153.0770 O   0  0  0  0  0  0  0  0  0  0  0  0
  148.0950  137.4830  154.0090 C   0  0  0  0  0  1  0  0  0  0  0  0
  146.3470  140.4530  154.4420 O   0  0  0  0  0  0  0  0  0  0  0  0
  146.3070  141.6260  153.6420 C   0  0  0  0  0  1  0  0  0  0  0  0
  137.4830  137.6300  156.0010 C   0  0  0  0  0  2  0  0  0  0  0  0
  134.8940  134.7980  155.8230 C   0  0  0  0  0  0  0  0  0  0  0  0
  135.7620  135.7810  156.3230 C   0  0  0  0  0  3  0  0  0  0  0  0
  136.5820  136.5380  155.4670 C   0  0  0  0  0  0  0  0  0  0  0  0
  136.5020  136.3000  154.0860 C   0  0  0  0  0  3  0  0  0  0  0  0
  135.6440  135.3240  153.5740 C   0  0  0  0  0  3  0  0  0  0  0  0
  134.8490  134.5760  154.4420 C   0  0  0  0  0  0  0  0  0  0  0  0
  133.7550  134.5050  157.8930 C   0  0  0  0  0  1  0  0  0  0  0  0
  134.0680  134.0200  156.5940 O   0  0  0  0  0  0  0  0  0  0  0  0
  134.0130  133.6140  153.9400 O   0  0  0  0  0  0  0  0  0  0  0  0
  133.2850  133.3140  154.4490 H   0  0  0  0  0  0  0  0  0  0  0  0
  1  4  1  0  0  0  0
  1 17  1  0  0  0  0
  2  1  1  0  0  0  0
  3  2  2  0  0  0  0
  5  2  1  0  0  0  0
  5  6  2  0  0  0  0
  7 12  1  0  0  0  0
  7  6  1  0  0  0  0
  8  7  2  0  0  0  0
  9 10  2  0  0  0  0
  9  8  1  0  0  0  0
 10 11  1  0  0  0  0
 11 15  1  0  0  0  0
 11 12  2  0  0  0  0
 13 10  1  0  0  0  0
 13 14  1  0  0  0  0
 16 15  1  0  0  0  0
 18 19  1  0  0  0  0
 18 25  1  0  0  0  0
 20 17  1  0  0  0  0
 20 19  2  0  0  0  0
 21 20  1  0  0  0  0
 22 21  2  0  0  0  0
 22 23  1  0  0  0  0
 23 18  2  0  0  0  0
 25 24  1  0  0  0  0
 26 23  1  0  0  0  0
 26 27  1  0  0  0  0
M  END
>  <MODEL>
5

>  <REMARK>
 VINA RESULT:    -7.135      1.379      1.796
 INTER + INTRA:         -10.987
 INTER:                 -10.398
 INTRA:                  -0.589
 UNBOUND:                -0.724
  Name = CHEMBL4442939
  11 active torsions:
  status: ('A' for Active; 'I' for Inactive)
    1  A    between atoms: C_1  and  O_2
    2  A    between atoms: O_2  and  C_3
    3  A    between atoms: C_5  and  C_6
    4  A    between atoms: C_6  and  N_7
    5  A    between atoms: C_8  and  C_10
    6  A    between atoms: C_11  and  C_12
    7  A    between atoms: C_15  and  O_16
    8  A    between atoms: O_16  and  C_17
    9  A    between atoms: C_18  and  O_19
   10  A    between atoms: O_19  and  C_20
   11  A    between atoms: C_24  and  O_25
                            x       y       z     vdW  Elec       q    Type
                         _______ _______ _______ _____ _____    ______ ____

>  <TORSDO>
F 8

>  <SCORE>
-7.135

>  <RMSD_LB>
1.379

>  <RMSD_UB>
1.796

$$$$
CHEMBL4442939
 OpenBabel10162523463D

 27 28  0  0  0  0  0  0  0  0999 V2000
  138.6030  137.3670  155.7480 N   0  0  0  0  0  0  0  0  0  0  0  0
  139.0150  138.3530  154.8830 C   0  0  0  0  0  0  0  0  0  0  0  0
  138.3190  139.3000  154.5320 O   0  0  0  0  0  0  0  0  0  0  0  0
  139.2400  136.6620  156.0040 H   0  0  0  0  0  0  0  0  0  0  0  0
  140.4040  138.1600  154.3980 C   0  0  0  0  0  3  0  0  0  0  0  0
  140.6560  137.7920  153.1290 C   0  0  0  0  0  3  0  0  0  0  0  0
  142.0140  137.5750  152.5990 C   0  0  0  0  0  0  0  0  0  0  0  0
  142.2120  137.3430  151.2380 C   0  0  0  0  0  3  0  0  0  0  0  0
  143.5070  137.1580  150.7240 C   0  0  0  0  0  3  0  0  0  0  0  0
  144.6310  137.2120  151.5570 C   0  0  0  0  0  0  0  0  0  0  0  0
  144.4440  137.4570  152.9270 C   0  0  0  0  0  0  0  0  0  0  0  0
  143.1410  137.6420  153.4280 C   0  0  0  0  0  3  0  0  0  0  0  0
  145.9100  137.0430  151.1080 O   0  0  0  0  0  0  0  0  0  0  0  0
  146.4160  135.7290  150.9370 C   0  0  0  0  0  1  0  0  0  0  0  0
  145.3880  137.5550  153.9180 O   0  0  0  0  0  0  0  0  0  0  0  0
  145.5280  138.7890  154.6070 C   0  0  0  0  0  1  0  0  0  0  0  0
  137.2610  137.3310  156.2970 C   0  0  0  0  0  2  0  0  0  0  0  0
  135.5890  135.1600  153.6050 C   0  0  0  0  0  0  0  0  0  0  0  0
  136.4010  136.1200  154.2290 C   0  0  0  0  0  3  0  0  0  0  0  0
  136.3520  136.3280  155.6190 C   0  0  0  0  0  0  0  0  0  0  0  0
  135.4800  135.5360  156.3810 C   0  0  0  0  0  3  0  0  0  0  0  0
  134.6650  134.5780  155.7750 C   0  0  0  0  0  3  0  0  0  0  0  0
  134.7190  134.3970  154.3930 C   0  0  0  0  0  0  0  0  0  0  0  0
  136.0020  135.9510  151.3980 C   0  0  0  0  0  1  0  0  0  0  0  0
  135.5790  134.9010  152.2580 O   0  0  0  0  0  0  0  0  0  0  0  0
  133.9160  133.4610  153.7970 O   0  0  0  0  0  0  0  0  0  0  0  0
  133.2910  133.7230  153.1500 H   0  0  0  0  0  0  0  0  0  0  0  0
  1  4  1  0  0  0  0
  1 17  1  0  0  0  0
  2  1  1  0  0  0  0
  3  2  2  0  0  0  0
  5  2  1  0  0  0  0
  6  5  2  0  0  0  0
  7  6  1  0  0  0  0
  7 12  1  0  0  0  0
  8  7  2  0  0  0  0
  9  8  1  0  0  0  0
  9 10  2  0  0  0  0
 10 11  1  0  0  0  0
 11 12  2  0  0  0  0
 11 15  1  0  0  0  0
 13 10  1  0  0  0  0
 14 13  1  0  0  0  0
 15 16  1  0  0  0  0
 18 19  2  0  0  0  0
 18 23  1  0  0  0  0
 19 20  1  0  0  0  0
 20 17  1  0  0  0  0
 20 21  2  0  0  0  0
 22 21  1  0  0  0  0
 23 22  2  0  0  0  0
 24 25  1  0  0  0  0
 25 18  1  0  0  0  0
 26 23  1  0  0  0  0
 27 26  1  0  0  0  0
M  END
>  <MODEL>
6

>  <REMARK>
 VINA RESULT:    -7.090      0.944      2.027
 INTER + INTRA:         -10.922
 INTER:                 -10.278
 INTRA:                  -0.644
 UNBOUND:                -0.724
  Name = CHEMBL4442939
  11 active torsions:
  status: ('A' for Active; 'I' for Inactive)
    1  A    between atoms: C_1  and  O_2
    2  A    between atoms: O_2  and  C_3
    3  A    between atoms: C_5  and  C_6
    4  A    between atoms: C_6  and  N_7
    5  A    between atoms: C_8  and  C_10
    6  A    between atoms: C_11  and  C_12
    7  A    between atoms: C_15  and  O_16
    8  A    between atoms: O_16  and  C_17
    9  A    between atoms: C_18  and  O_19
   10  A    between atoms: O_19  and  C_20
   11  A    between atoms: C_24  and  O_25
                            x       y       z     vdW  Elec       q    Type
                         _______ _______ _______ _____ _____    ______ ____

>  <TORSDO>
F 8

>  <SCORE>
-7.090

>  <RMSD_LB>
0.944

>  <RMSD_UB>
2.027

$$$$
CHEMBL4442939
 OpenBabel10162523463D

 27 28  0  0  0  0  0  0  0  0999 V2000
  135.0210  135.4910  154.2570 N   0  0  0  0  0  0  0  0  0  0  0  0
  134.3590  134.4060  153.7350 C   0  0  0  0  0  0  0  0  0  0  0  0
  134.1610  133.3590  154.3420 O   0  0  0  0  0  0  0  0  0  0  0  0
  135.1040  136.3060  153.7110 H   0  0  0  0  0  0  0  0  0  0  0  0
  133.9000  134.6190  152.3400 C   0  0  0  0  0  3  0  0  0  0  0  0
  134.3670  135.6410  151.5990 C   0  0  0  0  0  3  0  0  0  0  0  0
  133.9360  135.9050  150.2150 C   0  0  0  0  0  0  0  0  0  0  0  0
  132.8940  136.7970  149.9580 C   0  0  0  0  0  3  0  0  0  0  0  0
  132.4940  137.0690  148.6390 C   0  0  0  0  0  3  0  0  0  0  0  0
  133.1350  136.4680  147.5490 C   0  0  0  0  0  0  0  0  0  0  0  0
  134.1940  135.5780  147.7960 C   0  0  0  0  0  0  0  0  0  0  0  0
  134.5840  135.3150  149.1230 C   0  0  0  0  0  3  0  0  0  0  0  0
  132.7880  136.7020  146.2480 O   0  0  0  0  0  0  0  0  0  0  0  0
  133.2630  137.8740  145.6050 C   0  0  0  0  0  1  0  0  0  0  0  0
  134.9590  134.8840  146.8930 O   0  0  0  0  0  0  0  0  0  0  0  0
  134.4480  133.6720  146.3570 C   0  0  0  0  0  1  0  0  0  0  0  0
  135.6030  135.4770  155.5850 C   0  0  0  0  0  2  0  0  0  0  0  0
  138.3270  138.1290  155.0300 C   0  0  0  0  0  0  0  0  0  0  0  0
  137.1420  137.3880  154.9020 C   0  0  0  0  0  3  0  0  0  0  0  0
  136.9010  136.2490  155.6910 C   0  0  0  0  0  0  0  0  0  0  0  0
  137.8720  135.8740  156.6320 C   0  0  0  0  0  3  0  0  0  0  0  0
  139.0570  136.6000  156.7710 C   0  0  0  0  0  3  0  0  0  0  0  0
  139.2810  137.7190  155.9690 C   0  0  0  0  0  0  0  0  0  0  0  0
  139.2390  139.0380  153.0270 C   0  0  0  0  0  1  0  0  0  0  0  0
  138.6320  139.2460  154.2960 O   0  0  0  0  0  0  0  0  0  0  0  0
  140.4460  138.4280  156.1000 O   0  0  0  0  0  0  0  0  0  0  0  0
  140.5180  139.0930  156.7560 H   0  0  0  0  0  0  0  0  0  0  0  0
  1 17  1  0  0  0  0
  2  1  1  0  0  0  0
  2  3  2  0  0  0  0
  4  1  1  0  0  0  0
  5  2  1  0  0  0  0
  6  5  2  0  0  0  0
  7  6  1  0  0  0  0
  8  7  1  0  0  0  0
  9  8  2  0  0  0  0
 10 11  2  0  0  0  0
 10  9  1  0  0  0  0
 11 12  1  0  0  0  0
 12  7  2  0  0  0  0
 13 10  1  0  0  0  0
 14 13  1  0  0  0  0
 15 11  1  0  0  0  0
 16 15  1  0  0  0  0
 17 20  1  0  0  0  0
 18 23  1  0  0  0  0
 19 18  2  0  0  0  0
 19 20  1  0  0  0  0
 20 21  2  0  0  0  0
 21 22  1  0  0  0  0
 23 26  1  0  0  0  0
 23 22  2  0  0  0  0
 24 25  1  0  0  0  0
 25 18  1  0  0  0  0
 26 27  1  0  0  0  0
M  END
>  <MODEL>
7

>  <REMARK>
 VINA RESULT:    -7.074      4.379      9.210
 INTER + INTRA:         -10.899
 INTER:                 -10.274
 INTRA:                  -0.625
 UNBOUND:                -0.724
  Name = CHEMBL4442939
  11 active torsions:
  status: ('A' for Active; 'I' for Inactive)
    1  A    between atoms: C_1  and  O_2
    2  A    between atoms: O_2  and  C_3
    3  A    between atoms: C_5  and  C_6
    4  A    between atoms: C_6  and  N_7
    5  A    between atoms: C_8  and  C_10
    6  A    between atoms: C_11  and  C_12
    7  A    between atoms: C_15  and  O_16
    8  A    between atoms: O_16  and  C_17
    9  A    between atoms: C_18  and  O_19
   10  A    between atoms: O_19  and  C_20
   11  A    between atoms: C_24  and  O_25
                            x       y       z     vdW  Elec       q    Type
                         _______ _______ _______ _____ _____    ______ ____

>  <TORSDO>
F 8

>  <SCORE>
-7.074

>  <RMSD_LB>
4.379

>  <RMSD_UB>
9.210

$$$$
CHEMBL4442939
 OpenBabel10162523463D

 27 28  0  0  0  0  0  0  0  0999 V2000
  145.4190  138.8310  154.4730 N   0  0  0  0  0  0  0  0  0  0  0  0
  145.2140  137.5250  154.0960 C   0  0  0  0  0  0  0  0  0  0  0  0
  146.0660  136.6450  154.1600 O   0  0  0  0  0  0  0  0  0  0  0  0
  144.6680  139.4640  154.4210 H   0  0  0  0  0  0  0  0  0  0  0  0
  143.8430  137.2730  153.5900 C   0  0  0  0  0  3  0  0  0  0  0  0
  142.9820  138.2840  153.3720 C   0  0  0  0  0  3  0  0  0  0  0  0
  141.6050  138.0890  152.8820 C   0  0  0  0  0  0  0  0  0  0  0  0
  141.3760  137.5920  151.5990 C   0  0  0  0  0  3  0  0  0  0  0  0
  140.0650  137.3840  151.1360 C   0  0  0  0  0  3  0  0  0  0  0  0
  138.9580  137.6550  151.9490 C   0  0  0  0  0  0  0  0  0  0  0  0
  139.1780  138.1440  153.2470 C   0  0  0  0  0  0  0  0  0  0  0  0
  140.4960  138.3470  153.6980 C   0  0  0  0  0  3  0  0  0  0  0  0
  137.6660  137.4660  151.5480 O   0  0  0  0  0  0  0  0  0  0  0  0
  137.4030  137.1150  150.1990 C   0  0  0  0  0  1  0  0  0  0  0  0
  138.2550  138.4730  154.2080 O   0  0  0  0  0  0  0  0  0  0  0  0
  138.5080  138.0960  155.5530 C   0  0  0  0  0  1  0  0  0  0  0  0
  146.7060  139.3070  154.9440 C   0  0  0  0  0  2  0  0  0  0  0  0
  147.6100  141.1890  151.7190 C   0  0  0  0  0  0  0  0  0  0  0  0
  146.9590  140.3450  152.6320 C   0  0  0  0  0  3  0  0  0  0  0  0
  147.4350  140.1810  153.9450 C   0  0  0  0  0  0  0  0  0  0  0  0
  148.5740  140.9000  154.3360 C   0  0  0  0  0  3  0  0  0  0  0  0
  149.2340  141.7430  153.4380 C   0  0  0  0  0  3  0  0  0  0  0  0
  148.7530  141.8810  152.1360 C   0  0  0  0  0  0  0  0  0  0  0  0
  145.9960  142.1160  150.2340 C   0  0  0  0  0  1  0  0  0  0  0  0
  147.2080  141.3980  150.4240 O   0  0  0  0  0  0  0  0  0  0  0  0
  149.4040  142.7030  151.2540 O   0  0  0  0  0  0  0  0  0  0  0  0
  150.3170  142.5810  151.0860 H   0  0  0  0  0  0  0  0  0  0  0  0
  1 17  1  0  0  0  0
  2  3  2  0  0  0  0
  2  1  1  0  0  0  0
  4  1  1  0  0  0  0
  5  2  1  0  0  0  0
  6  5  2  0  0  0  0
  7  6  1  0  0  0  0
  7 12  1  0  0  0  0
  8  7  2  0  0  0  0
  9  8  1  0  0  0  0
  9 10  2  0  0  0  0
 10 11  1  0  0  0  0
 11 12  2  0  0  0  0
 11 15  1  0  0  0  0
 13 10  1  0  0  0  0
 14 13  1  0  0  0  0
 15 16  1  0  0  0  0
 18 23  2  0  0  0  0
 18 19  1  0  0  0  0
 19 20  2  0  0  0  0
 20 21  1  0  0  0  0
 20 17  1  0  0  0  0
 22 21  2  0  0  0  0
 23 22  1  0  0  0  0
 24 25  1  0  0  0  0
 25 18  1  0  0  0  0
 26 23  1  0  0  0  0
 27 26  1  0  0  0  0
M  END
>  <MODEL>
8

>  <REMARK>
 VINA RESULT:    -7.017      3.516     10.319
 INTER + INTRA:         -10.818
 INTER:                 -10.086
 INTRA:                  -0.732
 UNBOUND:                -0.724
  Name = CHEMBL4442939
  11 active torsions:
  status: ('A' for Active; 'I' for Inactive)
    1  A    between atoms: C_1  and  O_2
    2  A    between atoms: O_2  and  C_3
    3  A    between atoms: C_5  and  C_6
    4  A    between atoms: C_6  and  N_7
    5  A    between atoms: C_8  and  C_10
    6  A    between atoms: C_11  and  C_12
    7  A    between atoms: C_15  and  O_16
    8  A    between atoms: O_16  and  C_17
    9  A    between atoms: C_18  and  O_19
   10  A    between atoms: O_19  and  C_20
   11  A    between atoms: C_24  and  O_25
                            x       y       z     vdW  Elec       q    Type
                         _______ _______ _______ _____ _____    ______ ____

>  <TORSDO>
F 8

>  <SCORE>
-7.017

>  <RMSD_LB>
3.516

>  <RMSD_UB>
10.319

$$$$
CHEMBL4442939
 OpenBabel10162523463D

 27 28  0  0  0  0  0  0  0  0999 V2000
  144.6650  138.6990  150.9770 N   0  0  0  0  0  0  0  0  0  0  0  0
  143.7860  139.7080  150.6660 C   0  0  0  0  0  0  0  0  0  0  0  0
  144.0860  140.7180  150.0380 O   0  0  0  0  0  0  0  0  0  0  0  0
  144.3300  137.9060  151.4540 H   0  0  0  0  0  0  0  0  0  0  0  0
  142.4130  139.4630  151.1730 C   0  0  0  0  0  3  0  0  0  0  0  0
  142.1970  138.7030  152.2630 C   0  0  0  0  0  3  0  0  0  0  0  0
  140.8550  138.4170  152.8020 C   0  0  0  0  0  0  0  0  0  0  0  0
  139.8070  138.0820  151.9450 C   0  0  0  0  0  3  0  0  0  0  0  0
  138.5310  137.7870  152.4550 C   0  0  0  0  0  3  0  0  0  0  0  0
  138.2800  137.8070  153.8320 C   0  0  0  0  0  0  0  0  0  0  0  0
  139.3320  138.1300  154.7050 C   0  0  0  0  0  0  0  0  0  0  0  0
  140.6050  138.4230  154.1800 C   0  0  0  0  0  3  0  0  0  0  0  0
  137.0600  137.5240  154.3790 O   0  0  0  0  0  0  0  0  0  0  0  0
  136.4590  136.2660  154.1170 C   0  0  0  0  0  1  0  0  0  0  0  0
  139.3160  138.2070  156.0750 O   0  0  0  0  0  0  0  0  0  0  0  0
  140.3280  137.5320  156.8070 C   0  0  0  0  0  1  0  0  0  0  0  0
  146.0710  138.7620  150.6260 C   0  0  0  0  0  2  0  0  0  0  0  0
  147.9440  139.8940  153.7830 C   0  0  0  0  0  0  0  0  0  0  0  0
  147.1380  139.1540  152.9050 C   0  0  0  0  0  3  0  0  0  0  0  0
  146.9020  139.5850  151.5870 C   0  0  0  0  0  0  0  0  0  0  0  0
  147.5120  140.7730  151.1560 C   0  0  0  0  0  3  0  0  0  0  0  0
  148.3160  141.5220  152.0190 C   0  0  0  0  0  3  0  0  0  0  0  0
  148.5250  141.0830  153.3260 C   0  0  0  0  0  0  0  0  0  0  0  0
  147.4170  138.5120  155.6490 C   0  0  0  0  0  1  0  0  0  0  0  0
  148.2170  139.5410  155.0800 O   0  0  0  0  0  0  0  0  0  0  0  0
  149.3090  141.8210  154.1740 O   0  0  0  0  0  0  0  0  0  0  0  0
  149.4400  141.5360  155.0570 H   0  0  0  0  0  0  0  0  0  0  0  0
  1  4  1  0  0  0  0
  2  1  1  0  0  0  0
  2  5  1  0  0  0  0
  3  2  2  0  0  0  0
  5  6  2  0  0  0  0
  6  7  1  0  0  0  0
  7 12  1  0  0  0  0
  8  9  1  0  0  0  0
  8  7  2  0  0  0  0
  9 10  2  0  0  0  0
 10 13  1  0  0  0  0
 10 11  1  0  0  0  0
 11 15  1  0  0  0  0
 12 11  2  0  0  0  0
 14 13  1  0  0  0  0
 15 16  1  0  0  0  0
 17  1  1  0  0  0  0
 17 20  1  0  0  0  0
 18 25  1  0  0  0  0
 19 18  2  0  0  0  0
 20 19  1  0  0  0  0
 21 20  2  0  0  0  0
 21 22  1  0  0  0  0
 22 23  2  0  0  0  0
 23 18  1  0  0  0  0
 23 26  1  0  0  0  0
 25 24  1  0  0  0  0
 26 27  1  0  0  0  0
M  END
>  <MODEL>
9

>  <REMARK>
 VINA RESULT:    -6.914      3.160     10.058
 INTER + INTRA:         -10.670
 INTER:                  -9.946
 INTRA:                  -0.724
 UNBOUND:                -0.724
  Name = CHEMBL4442939
  11 active torsions:
  status: ('A' for Active; 'I' for Inactive)
    1  A    between atoms: C_1  and  O_2
    2  A    between atoms: O_2  and  C_3
    3  A    between atoms: C_5  and  C_6
    4  A    between atoms: C_6  and  N_7
    5  A    between atoms: C_8  and  C_10
    6  A    between atoms: C_11  and  C_12
    7  A    between atoms: C_15  and  O_16
    8  A    between atoms: O_16  and  C_17
    9  A    between atoms: C_18  and  O_19
   10  A    between atoms: O_19  and  C_20
   11  A    between atoms: C_24  and  O_25
                            x       y       z     vdW  Elec       q    Type
                         _______ _______ _______ _____ _____    ______ ____

>  <TORSDO>
F 8

>  <SCORE>
-6.914

>  <RMSD_LB>
3.160

>  <RMSD_UB>
10.058

$$$$
