CHEMBL125488
 OpenBabel10162523523D

 37 40  0  0  1  0  0  0  0  0999 V2000
  134.9570  134.1330  150.6820 C   0  0  2  0  0  3  0  0  0  0  0  0
  134.4100  135.3790  149.8910 C   0  0  2  0  0  3  0  0  0  0  0  0
  133.1670  134.8010  149.1670 C   0  0  1  0  0  3  0  0  0  0  0  0
  133.6280  133.8170  148.1190 C   0  0  0  0  0  2  0  0  0  0  0  0
  134.1310  132.7590  148.7720 C   0  0  0  0  0  2  0  0  0  0  0  0
  133.9590  133.0200  150.2570 C   0  0  2  0  0  3  0  0  0  0  0  0
  132.6420  133.8060  150.1990 C   0  0  0  0  0  2  0  0  0  0  0  0
  135.6620  135.4600  152.6190 N   0  0  0  0  0  0  0  0  0  0  0  0
  134.9360  134.3660  152.2000 C   0  0  0  0  0  0  0  0  0  0  0  0
  134.3230  133.6400  152.9720 O   0  0  0  0  0  0  0  0  0  0  0  0
  136.1230  136.0220  151.9540 H   0  0  0  0  0  0  0  0  0  0  0  0
  135.7590  135.7940  154.0270 C   0  0  0  0  0  2  0  0  0  0  0  0
  138.4220  137.7520  155.9580 C   0  0  0  0  0  0  0  0  0  0  0  0
  137.3210  136.9400  155.6590 C   0  0  0  0  0  3  0  0  0  0  0  0
  136.9340  136.6970  154.3280 C   0  0  0  0  0  0  0  0  0  0  0  0
  137.6640  137.2930  153.2940 C   0  0  0  0  0  3  0  0  0  0  0  0
  138.7650  138.1080  153.5740 C   0  0  0  0  0  3  0  0  0  0  0  0
  139.1380  138.3350  154.9010 C   0  0  0  0  0  0  0  0  0  0  0  0
  138.0080  137.7300  158.3030 C   0  0  0  0  0  1  0  0  0  0  0  0
  138.8760  138.0310  157.2210 O   0  0  0  0  0  0  0  0  0  0  0  0
  140.2140  139.1350  155.1770 O   0  0  0  0  0  0  0  0  0  0  0  0
  140.9230  139.1940  154.5660 H   0  0  0  0  0  0  0  0  0  0  0  0
  135.4670  135.9710  148.9660 C   0  0  0  0  0  0  0  0  0  0  0  0
  135.1720  136.7950  148.1030 O   0  0  0  0  0  0  0  0  0  0  0  0
  136.7330  135.4320  149.0830 N   0  0  0  0  0  0  0  0  0  0  0  0
  136.8870  134.6670  149.6830 H   0  0  0  0  0  0  0  0  0  0  0  0
  137.8330  135.9860  148.3300 C   0  0  0  0  0  2  0  0  0  0  0  0
  138.6010  137.0060  149.1260 C   0  0  0  0  0  0  0  0  0  0  0  0
  139.7540  136.6180  149.8120 C   0  0  0  0  0  3  0  0  0  0  0  0
  140.5090  137.5570  150.5150 C   0  0  0  0  0  3  0  0  0  0  0  0
  140.1140  138.8970  150.5520 C   0  0  0  0  0  0  0  0  0  0  0  0
  138.9480  139.3080  149.8920 C   0  0  0  0  0  0  0  0  0  0  0  0
  138.1990  138.3500  149.1880 C   0  0  0  0  0  3  0  0  0  0  0  0
  140.8970  139.7780  151.2410 O   0  0  0  0  0  0  0  0  0  0  0  0
  140.9970  140.6580  150.9310 H   0  0  0  0  0  0  0  0  0  0  0  0
  138.4130  140.5670  149.8220 O   0  0  0  0  0  0  0  0  0  0  0  0
  137.3320  140.7850  148.9250 C   0  0  0  0  0  1  0  0  0  0  0  0
  1  9  1  1  0  0  0
  2 23  1  6  0  0  0
  2  1  1  0  0  0  0
  3  4  1  6  0  0  0
  3  2  1  0  0  0  0
  3  7  1  0  0  0  0
  4  5  1  0  0  0  0
  6  5  1  6  0  0  0
  6  1  1  0  0  0  0
  7  6  1  0  0  0  0
  8 12  1  0  0  0  0
  9  8  1  0  0  0  0
  9 10  2  0  0  0  0
 11  8  1  0  0  0  0
 12 15  1  0  0  0  0
 13 20  1  0  0  0  0
 14 13  1  0  0  0  0
 15 14  2  0  0  0  0
 16 17  2  0  0  0  0
 16 15  1  0  0  0  0
 17 18  1  0  0  0  0
 18 21  1  0  0  0  0
 18 13  2  0  0  0  0
 20 19  1  0  0  0  0
 22 21  1  0  0  0  0
 23 25  1  0  0  0  0
 24 23  2  0  0  0  0
 25 26  1  0  0  0  0
 27 25  1  0  0  0  0
 27 28  1  0  0  0  0
 28 33  2  0  0  0  0
 28 29  1  0  0  0  0
 29 30  2  0  0  0  0
 30 31  1  0  0  0  0
 31 34  1  0  0  0  0
 32 31  2  0  0  0  0
 33 32  1  0  0  0  0
 35 34  1  0  0  0  0
 36 32  1  0  0  0  0
 37 36  1  0  0  0  0
M  END
>  <MODEL>
1

>  <REMARK>
 VINA RESULT:    -8.921      0.000      0.000
 INTER + INTRA:         -14.832
 INTER:                 -12.952
 INTRA:                  -1.880
 UNBOUND:                -1.217
  Name = CHEMBL125488
  12 active torsions:
  status: ('A' for Active; 'I' for Inactive)
    1  A    between atoms: C_1  and  O_2
    2  A    between atoms: O_2  and  C_3
    3  A    between atoms: C_5  and  C_6
    4  A    between atoms: C_6  and  N_7
    5  A    between atoms: C_8  and  C_10
    6  A    between atoms: C_11  and  C_12
    7  A    between atoms: N_14  and  C_15
    8  A    between atoms: C_15  and  C_16
    9  A    between atoms: C_19  and  O_20
   10  A    between atoms: C_21  and  O_22
   11  A    between atoms: O_22  and  C_23
   12  A    between atoms: C_32  and  O_33
                            x       y       z     vdW  Elec       q    Type
                         _______ _______ _______ _____ _____    ______ ____

>  <TORSDO>
F 10

>  <SCORE>
-8.921

>  <RMSD_LB>
0.000

>  <RMSD_UB>
0.000

$$$$
CHEMBL125488
 OpenBabel10162523523D

 37 40  0  0  1  0  0  0  0  0999 V2000
  134.9240  134.1110  150.6860 C   0  0  2  0  0  3  0  0  0  0  0  0
  134.4270  135.3710  149.8830 C   0  0  2  0  0  3  0  0  0  0  0  0
  133.1260  134.8560  149.2170 C   0  0  1  0  0  3  0  0  0  0  0  0
  133.4870  133.8210  148.1780 C   0  0  0  0  0  2  0  0  0  0  0  0
  133.9470  132.7490  148.8400 C   0  0  0  0  0  2  0  0  0  0  0  0
  133.8450  133.0540  150.3230 C   0  0  2  0  0  3  0  0  0  0  0  0
  132.5770  133.9190  150.2900 C   0  0  0  0  0  2  0  0  0  0  0  0
  135.7080  135.4890  152.5560 N   0  0  0  0  0  0  0  0  0  0  0  0
  134.9710  134.3800  152.1970 C   0  0  0  0  0  0  0  0  0  0  0  0
  134.4020  133.6680  153.0140 O   0  0  0  0  0  0  0  0  0  0  0  0
  136.1320  136.0390  151.8580 H   0  0  0  0  0  0  0  0  0  0  0  0
  135.8670  135.8570  153.9500 C   0  0  0  0  0  2  0  0  0  0  0  0
  138.8600  138.1420  153.2640 C   0  0  0  0  0  0  0  0  0  0  0  0
  137.8350  137.2040  153.0960 C   0  0  0  0  0  3  0  0  0  0  0  0
  136.9860  136.8510  154.1620 C   0  0  0  0  0  0  0  0  0  0  0  0
  137.1890  137.4480  155.4110 C   0  0  0  0  0  3  0  0  0  0  0  0
  138.2100  138.3850  155.5980 C   0  0  0  0  0  3  0  0  0  0  0  0
  139.0400  138.7270  154.5270 C   0  0  0  0  0  0  0  0  0  0  0  0
  140.8850  137.7650  152.0680 C   0  0  0  0  0  1  0  0  0  0  0  0
  139.7230  138.5520  152.2810 O   0  0  0  0  0  0  0  0  0  0  0  0
  140.0420  139.6420  154.7100 O   0  0  0  0  0  0  0  0  0  0  0  0
  140.8370  139.5690  154.2200 H   0  0  0  0  0  0  0  0  0  0  0  0
  135.4840  135.8750  148.9080 C   0  0  0  0  0  0  0  0  0  0  0  0
  136.5030  135.2250  148.6780 O   0  0  0  0  0  0  0  0  0  0  0  0
  135.2810  137.1460  148.4100 N   0  0  0  0  0  0  0  0  0  0  0  0
  134.5290  137.6880  148.7410 H   0  0  0  0  0  0  0  0  0  0  0  0
  136.1650  137.6840  147.4020 C   0  0  0  0  0  2  0  0  0  0  0  0
  137.3040  138.4560  148.0100 C   0  0  0  0  0  0  0  0  0  0  0  0
  137.0550  139.6930  148.6090 C   0  0  0  0  0  3  0  0  0  0  0  0
  138.0870  140.4020  149.2230 C   0  0  0  0  0  3  0  0  0  0  0  0
  139.3870  139.8900  149.2360 C   0  0  0  0  0  0  0  0  0  0  0  0
  139.6690  138.6620  148.6220 C   0  0  0  0  0  0  0  0  0  0  0  0
  138.6180  137.9600  148.0070 C   0  0  0  0  0  3  0  0  0  0  0  0
  140.3580  140.6170  149.8650 O   0  0  0  0  0  0  0  0  0  0  0  0
  140.8860  140.2180  150.5280 H   0  0  0  0  0  0  0  0  0  0  0  0
  140.8720  138.0130  148.5370 O   0  0  0  0  0  0  0  0  0  0  0  0
  140.8690  136.5920  148.5810 C   0  0  0  0  0  1  0  0  0  0  0  0
  1  9  1  1  0  0  0
  2 23  1  6  0  0  0
  2  1  1  0  0  0  0
  3  4  1  6  0  0  0
  3  2  1  0  0  0  0
  3  7  1  0  0  0  0
  4  5  1  0  0  0  0
  6  5  1  6  0  0  0
  6  1  1  0  0  0  0
  7  6  1  0  0  0  0
  8 12  1  0  0  0  0
  9  8  1  0  0  0  0
  9 10  2  0  0  0  0
 11  8  1  0  0  0  0
 12 15  1  0  0  0  0
 13 18  1  0  0  0  0
 14 13  2  0  0  0  0
 14 15  1  0  0  0  0
 15 16  2  0  0  0  0
 16 17  1  0  0  0  0
 18 21  1  0  0  0  0
 18 17  2  0  0  0  0
 19 20  1  0  0  0  0
 20 13  1  0  0  0  0
 22 21  1  0  0  0  0
 24 23  2  0  0  0  0
 25 26  1  0  0  0  0
 25 23  1  0  0  0  0
 27 28  1  0  0  0  0
 27 25  1  0  0  0  0
 28 29  1  0  0  0  0
 29 30  2  0  0  0  0
 30 31  1  0  0  0  0
 31 34  1  0  0  0  0
 32 31  2  0  0  0  0
 33 28  2  0  0  0  0
 33 32  1  0  0  0  0
 34 35  1  0  0  0  0
 36 37  1  0  0  0  0
 36 32  1  0  0  0  0
M  END
>  <MODEL>
2

>  <REMARK>
 VINA RESULT:    -8.708      1.300      2.508
 INTER + INTRA:         -14.508
 INTER:                 -12.625
 INTRA:                  -1.883
 UNBOUND:                -1.217
  Name = CHEMBL125488
  12 active torsions:
  status: ('A' for Active; 'I' for Inactive)
    1  A    between atoms: C_1  and  O_2
    2  A    between atoms: O_2  and  C_3
    3  A    between atoms: C_5  and  C_6
    4  A    between atoms: C_6  and  N_7
    5  A    between atoms: C_8  and  C_10
    6  A    between atoms: C_11  and  C_12
    7  A    between atoms: N_14  and  C_15
    8  A    between atoms: C_15  and  C_16
    9  A    between atoms: C_19  and  O_20
   10  A    between atoms: C_21  and  O_22
   11  A    between atoms: O_22  and  C_23
   12  A    between atoms: C_32  and  O_33
                            x       y       z     vdW  Elec       q    Type
                         _______ _______ _______ _____ _____    ______ ____

>  <TORSDO>
F 10

>  <SCORE>
-8.708

>  <RMSD_LB>
1.300

>  <RMSD_UB>
2.508

$$$$
CHEMBL125488
 OpenBabel10162523523D

 37 40  0  0  1  0  0  0  0  0999 V2000
  140.5140  138.0080  153.3800 C   0  0  2  0  0  3  0  0  0  0  0  0
  141.6810  139.0560  153.2390 C   0  0  2  0  0  3  0  0  0  0  0  0
  141.7720  139.2570  151.7050 C   0  0  1  0  0  3  0  0  0  0  0  0
  142.2860  137.9830  151.0770 C   0  0  0  0  0  2  0  0  0  0  0  0
  141.3190  137.0640  151.2170 C   0  0  0  0  0  2  0  0  0  0  0  0
  140.1430  137.7420  151.8940 C   0  0  2  0  0  3  0  0  0  0  0  0
  140.3080  139.1420  151.2880 C   0  0  0  0  0  2  0  0  0  0  0  0
  138.5350  137.6250  154.7750 N   0  0  0  0  0  0  0  0  0  0  0  0
  139.3270  138.5780  154.1690 C   0  0  0  0  0  0  0  0  0  0  0  0
  139.1030  139.7780  154.2530 O   0  0  0  0  0  0  0  0  0  0  0  0
  138.7700  136.6720  154.6910 H   0  0  0  0  0  0  0  0  0  0  0  0
  137.3610  138.0080  155.5350 C   0  0  0  0  0  2  0  0  0  0  0  0
  134.7930  135.2080  155.0630 C   0  0  0  0  0  0  0  0  0  0  0  0
  135.6200  136.3110  154.8200 C   0  0  0  0  0  3  0  0  0  0  0  0
  136.4540  136.8330  155.8270 C   0  0  0  0  0  0  0  0  0  0  0  0
  136.4370  136.2380  157.0930 C   0  0  0  0  0  3  0  0  0  0  0  0
  135.6150  135.1370  157.3540 C   0  0  0  0  0  3  0  0  0  0  0  0
  134.7970  134.6280  156.3410 C   0  0  0  0  0  0  0  0  0  0  0  0
  133.8630  135.2550  152.8710 C   0  0  0  0  0  1  0  0  0  0  0  0
  133.9610  134.6280  154.1410 O   0  0  0  0  0  0  0  0  0  0  0  0
  133.9900  133.5520  156.5970 O   0  0  0  0  0  0  0  0  0  0  0  0
  133.4970  133.5150  157.3930 H   0  0  0  0  0  0  0  0  0  0  0  0
  142.9650  138.5650  153.8950 C   0  0  0  0  0  0  0  0  0  0  0  0
  143.1590  137.3690  154.1050 O   0  0  0  0  0  0  0  0  0  0  0  0
  143.8230  139.5500  154.3430 N   0  0  0  0  0  0  0  0  0  0  0  0
  143.5540  140.4960  154.2890 H   0  0  0  0  0  0  0  0  0  0  0  0
  145.1130  139.2000  154.8880 C   0  0  0  0  0  2  0  0  0  0  0  0
  146.2290  139.9520  154.2150 C   0  0  0  0  0  0  0  0  0  0  0  0
  147.5550  139.6000  154.4790 C   0  0  0  0  0  3  0  0  0  0  0  0
  148.6030  140.2500  153.8270 C   0  0  0  0  0  3  0  0  0  0  0  0
  148.3400  141.2710  152.9100 C   0  0  0  0  0  0  0  0  0  0  0  0
  147.0200  141.6610  152.6440 C   0  0  0  0  0  0  0  0  0  0  0  0
  145.9750  140.9960  153.3090 C   0  0  0  0  0  3  0  0  0  0  0  0
  149.4020  141.8640  152.2870 O   0  0  0  0  0  0  0  0  0  0  0  0
  150.2450  141.4550  152.3080 H   0  0  0  0  0  0  0  0  0  0  0  0
  146.5790  142.6320  151.7860 O   0  0  0  0  0  0  0  0  0  0  0  0
  146.4650  142.3040  150.4070 C   0  0  0  0  0  1  0  0  0  0  0  0
  1  9  1  1  0  0  0
  2  1  1  0  0  0  0
  2 23  1  6  0  0  0
  3  4  1  6  0  0  0
  3  2  1  0  0  0  0
  4  5  1  0  0  0  0
  6  5  1  6  0  0  0
  6  1  1  0  0  0  0
  7  3  1  0  0  0  0
  7  6  1  0  0  0  0
  8 12  1  0  0  0  0
  9 10  2  0  0  0  0
  9  8  1  0  0  0  0
 11  8  1  0  0  0  0
 12 15  1  0  0  0  0
 13 18  1  0  0  0  0
 14 13  2  0  0  0  0
 14 15  1  0  0  0  0
 15 16  2  0  0  0  0
 16 17  1  0  0  0  0
 18 21  1  0  0  0  0
 18 17  2  0  0  0  0
 19 20  1  0  0  0  0
 20 13  1  0  0  0  0
 21 22  1  0  0  0  0
 23 24  2  0  0  0  0
 23 25  1  0  0  0  0
 25 27  1  0  0  0  0
 26 25  1  0  0  0  0
 28 29  1  0  0  0  0
 28 27  1  0  0  0  0
 30 29  2  0  0  0  0
 31 30  1  0  0  0  0
 32 31  2  0  0  0  0
 32 33  1  0  0  0  0
 33 28  2  0  0  0  0
 34 35  1  0  0  0  0
 34 31  1  0  0  0  0
 36 32  1  0  0  0  0
 37 36  1  0  0  0  0
M  END
>  <MODEL>
3

>  <REMARK>
 VINA RESULT:    -8.549      4.926      7.998
 INTER + INTRA:         -14.264
 INTER:                 -13.358
 INTRA:                  -0.906
 UNBOUND:                -1.217
  Name = CHEMBL125488
  12 active torsions:
  status: ('A' for Active; 'I' for Inactive)
    1  A    between atoms: C_1  and  O_2
    2  A    between atoms: O_2  and  C_3
    3  A    between atoms: C_5  and  C_6
    4  A    between atoms: C_6  and  N_7
    5  A    between atoms: C_8  and  C_10
    6  A    between atoms: C_11  and  C_12
    7  A    between atoms: N_14  and  C_15
    8  A    between atoms: C_15  and  C_16
    9  A    between atoms: C_19  and  O_20
   10  A    between atoms: C_21  and  O_22
   11  A    between atoms: O_22  and  C_23
   12  A    between atoms: C_32  and  O_33
                            x       y       z     vdW  Elec       q    Type
                         _______ _______ _______ _____ _____    ______ ____

>  <TORSDO>
F 10

>  <SCORE>
-8.549

>  <RMSD_LB>
4.926

>  <RMSD_UB>
7.998

$$$$
CHEMBL125488
 OpenBabel10162523523D

 37 40  0  0  1  0  0  0  0  0999 V2000
  146.1810  140.2750  150.3240 C   0  0  2  0  0  3  0  0  0  0  0  0
  144.8760  140.7180  151.0850 C   0  0  2  0  0  3  0  0  0  0  0  0
  145.2310  142.1500  151.5600 C   0  0  1  0  0  3  0  0  0  0  0  0
  146.3110  142.0600  152.6120 C   0  0  0  0  0  2  0  0  0  0  0  0
  147.4270  141.6500  151.9900 C   0  0  0  0  0  2  0  0  0  0  0  0
  147.0980  141.5140  150.5140 C   0  0  2  0  0  3  0  0  0  0  0  0
  146.0830  142.6590  150.4010 C   0  0  0  0  0  2  0  0  0  0  0  0
  147.0150  139.5950  148.1220 N   0  0  0  0  0  0  0  0  0  0  0  0
  145.9080  139.9930  148.8400 C   0  0  0  0  0  0  0  0  0  0  0  0
  144.7980  140.1120  148.3360 O   0  0  0  0  0  0  0  0  0  0  0  0
  147.8820  139.4970  148.5790 H   0  0  0  0  0  0  0  0  0  0  0  0
  146.9210  139.3170  146.7010 C   0  0  0  0  0  2  0  0  0  0  0  0
  149.9690  137.0830  146.0870 C   0  0  0  0  0  0  0  0  0  0  0  0
  148.7830  137.6000  146.6220 C   0  0  0  0  0  3  0  0  0  0  0  0
  148.2180  138.7910  146.1280 C   0  0  0  0  0  0  0  0  0  0  0  0
  148.8700  139.4660  145.0900 C   0  0  0  0  0  3  0  0  0  0  0  0
  150.0560  138.9650  144.5450 C   0  0  0  0  0  3  0  0  0  0  0  0
  150.6000  137.7790  145.0450 C   0  0  0  0  0  0  0  0  0  0  0  0
  150.5080  135.6100  147.8800 C   0  0  0  0  0  1  0  0  0  0  0  0
  150.5810  135.9270  146.4980 O   0  0  0  0  0  0  0  0  0  0  0  0
  151.7630  137.2900  144.5140 O   0  0  0  0  0  0  0  0  0  0  0  0
  151.9200  136.3660  144.5030 H   0  0  0  0  0  0  0  0  0  0  0  0
  144.5150  139.7470  152.2030 C   0  0  0  0  0  0  0  0  0  0  0  0
  145.3190  138.9060  152.6030 O   0  0  0  0  0  0  0  0  0  0  0  0
  143.2060  139.7960  152.6380 N   0  0  0  0  0  0  0  0  0  0  0  0
  142.5590  140.3810  152.1820 H   0  0  0  0  0  0  0  0  0  0  0  0
  142.7800  138.9930  153.7600 C   0  0  0  0  0  2  0  0  0  0  0  0
  141.3130  138.6690  153.6940 C   0  0  0  0  0  0  0  0  0  0  0  0
  140.7740  138.1530  152.5130 C   0  0  0  0  0  3  0  0  0  0  0  0
  139.4260  137.7990  152.4460 C   0  0  0  0  0  3  0  0  0  0  0  0
  138.5950  137.9680  153.5560 C   0  0  0  0  0  0  0  0  0  0  0  0
  139.1040  138.5060  154.7450 C   0  0  0  0  0  0  0  0  0  0  0  0
  140.4640  138.8580  154.7970 C   0  0  0  0  0  3  0  0  0  0  0  0
  137.2870  137.5900  153.4410 O   0  0  0  0  0  0  0  0  0  0  0  0
  136.9850  136.8110  153.8660 H   0  0  0  0  0  0  0  0  0  0  0  0
  138.4420  138.7420  155.9210 O   0  0  0  0  0  0  0  0  0  0  0  0
  138.4180  137.7050  156.8930 C   0  0  0  0  0  1  0  0  0  0  0  0
  1  9  1  6  0  0  0
  1  6  1  0  0  0  0
  1  2  1  0  0  0  0
  2  3  1  0  0  0  0
  2 23  1  1  0  0  0
  3  7  1  6  0  0  0
  3  4  1  0  0  0  0
  5  4  1  0  0  0  0
  6  7  1  1  0  0  0
  6  5  1  0  0  0  0
  8 11  1  0  0  0  0
  8  9  1  0  0  0  0
 10  9  2  0  0  0  0
 12  8  1  0  0  0  0
 13 20  1  0  0  0  0
 13 14  1  0  0  0  0
 15 14  2  0  0  0  0
 15 12  1  0  0  0  0
 16 15  1  0  0  0  0
 17 18  1  0  0  0  0
 17 16  2  0  0  0  0
 18 13  2  0  0  0  0
 20 19  1  0  0  0  0
 21 18  1  0  0  0  0
 22 21  1  0  0  0  0
 23 24  2  0  0  0  0
 23 25  1  0  0  0  0
 25 27  1  0  0  0  0
 26 25  1  0  0  0  0
 28 27  1  0  0  0  0
 28 33  1  0  0  0  0
 29 28  2  0  0  0  0
 30 29  1  0  0  0  0
 30 31  2  0  0  0  0
 31 32  1  0  0  0  0
 32 33  2  0  0  0  0
 32 36  1  0  0  0  0
 34 31  1  0  0  0  0
 34 35  1  0  0  0  0
 36 37  1  0  0  0  0
M  END
>  <MODEL>
4

>  <REMARK>
 VINA RESULT:    -8.527      7.348     12.192
 INTER + INTRA:         -14.230
 INTER:                 -13.245
 INTRA:                  -0.985
 UNBOUND:                -1.217
  Name = CHEMBL125488
  12 active torsions:
  status: ('A' for Active; 'I' for Inactive)
    1  A    between atoms: C_1  and  O_2
    2  A    between atoms: O_2  and  C_3
    3  A    between atoms: C_5  and  C_6
    4  A    between atoms: C_6  and  N_7
    5  A    between atoms: C_8  and  C_10
    6  A    between atoms: C_11  and  C_12
    7  A    between atoms: N_14  and  C_15
    8  A    between atoms: C_15  and  C_16
    9  A    between atoms: C_19  and  O_20
   10  A    between atoms: C_21  and  O_22
   11  A    between atoms: O_22  and  C_23
   12  A    between atoms: C_32  and  O_33
                            x       y       z     vdW  Elec       q    Type
                         _______ _______ _______ _____ _____    ______ ____

>  <TORSDO>
F 10

>  <SCORE>
-8.527

>  <RMSD_LB>
7.348

>  <RMSD_UB>
12.192

$$$$
CHEMBL125488
 OpenBabel10162523523D

 37 40  0  0  1  0  0  0  0  0999 V2000
  134.6780  134.6950  150.5210 C   0  0  2  0  0  3  0  0  0  0  0  0
  133.7890  135.3660  149.4070 C   0  0  2  0  0  3  0  0  0  0  0  0
  132.7730  134.2470  149.0650 C   0  0  1  0  0  3  0  0  0  0  0  0
  133.5060  133.1160  148.3820 C   0  0  0  0  0  2  0  0  0  0  0  0
  134.2960  132.5510  149.3060 C   0  0  0  0  0  2  0  0  0  0  0  0
  134.0520  133.2760  150.6170 C   0  0  2  0  0  3  0  0  0  0  0  0
  132.5620  133.5910  150.4280 C   0  0  0  0  0  2  0  0  0  0  0  0
  135.3860  134.9360  152.8550 N   0  0  0  0  0  0  0  0  0  0  0  0
  134.5860  135.4480  151.8550 C   0  0  0  0  0  0  0  0  0  0  0  0
  133.8620  136.4210  152.0180 O   0  0  0  0  0  0  0  0  0  0  0  0
  135.9640  134.1610  152.6670 H   0  0  0  0  0  0  0  0  0  0  0  0
  135.3880  135.5250  154.1810 C   0  0  0  0  0  2  0  0  0  0  0  0
  137.9070  137.8630  155.8670 C   0  0  0  0  0  0  0  0  0  0  0  0
  136.8470  136.9720  155.6630 C   0  0  0  0  0  3  0  0  0  0  0  0
  136.5200  136.5090  154.3750 C   0  0  0  0  0  0  0  0  0  0  0  0
  137.2700  136.9640  153.2850 C   0  0  0  0  0  3  0  0  0  0  0  0
  138.3310  137.8560  153.4690 C   0  0  0  0  0  3  0  0  0  0  0  0
  138.6440  138.3010  154.7560 C   0  0  0  0  0  0  0  0  0  0  0  0
  137.8170  137.6870  158.2400 C   0  0  0  0  0  1  0  0  0  0  0  0
  138.3020  138.3540  157.0850 O   0  0  0  0  0  0  0  0  0  0  0  0
  139.6810  139.1770  154.9380 O   0  0  0  0  0  0  0  0  0  0  0  0
  140.3370  139.2700  154.2750 H   0  0  0  0  0  0  0  0  0  0  0  0
  134.6270  135.8480  148.2290 C   0  0  0  0  0  0  0  0  0  0  0  0
  135.8060  136.1660  148.3710 O   0  0  0  0  0  0  0  0  0  0  0  0
  133.9450  136.0190  147.0410 N   0  0  0  0  0  0  0  0  0  0  0  0
  132.9680  135.8980  147.0150 H   0  0  0  0  0  0  0  0  0  0  0  0
  134.6570  136.3750  145.8360 C   0  0  0  0  0  2  0  0  0  0  0  0
  135.3040  135.1780  145.1940 C   0  0  0  0  0  0  0  0  0  0  0  0
  134.6150  133.9640  145.1480 C   0  0  0  0  0  3  0  0  0  0  0  0
  135.1750  132.8560  144.5130 C   0  0  0  0  0  3  0  0  0  0  0  0
  136.4400  132.9420  143.9250 C   0  0  0  0  0  0  0  0  0  0  0  0
  137.1630  134.1410  143.9780 C   0  0  0  0  0  0  0  0  0  0  0  0
  136.5850  135.2490  144.6210 C   0  0  0  0  0  3  0  0  0  0  0  0
  136.9360  131.8320  143.3020 O   0  0  0  0  0  0  0  0  0  0  0  0
  137.8490  131.6280  143.3640 H   0  0  0  0  0  0  0  0  0  0  0  0
  138.4040  134.4060  143.4620 O   0  0  0  0  0  0  0  0  0  0  0  0
  139.1640  135.4520  144.0540 C   0  0  0  0  0  1  0  0  0  0  0  0
  1  6  1  0  0  0  0
  1  9  1  1  0  0  0
  2 23  1  6  0  0  0
  2  1  1  0  0  0  0
  3  4  1  6  0  0  0
  3  2  1  0  0  0  0
  3  7  1  0  0  0  0
  4  5  1  0  0  0  0
  6  5  1  6  0  0  0
  7  6  1  0  0  0  0
  8 12  1  0  0  0  0
  9 10  2  0  0  0  0
  9  8  1  0  0  0  0
 11  8  1  0  0  0  0
 12 15  1  0  0  0  0
 13 20  1  0  0  0  0
 14 13  1  0  0  0  0
 15 14  2  0  0  0  0
 16 17  2  0  0  0  0
 16 15  1  0  0  0  0
 17 18  1  0  0  0  0
 18 21  1  0  0  0  0
 18 13  2  0  0  0  0
 20 19  1  0  0  0  0
 22 21  1  0  0  0  0
 23 24  2  0  0  0  0
 25 23  1  0  0  0  0
 26 25  1  0  0  0  0
 27 25  1  0  0  0  0
 28 27  1  0  0  0  0
 29 28  1  0  0  0  0
 30 29  2  0  0  0  0
 31 32  2  0  0  0  0
 31 30  1  0  0  0  0
 32 33  1  0  0  0  0
 33 28  2  0  0  0  0
 34 35  1  0  0  0  0
 34 31  1  0  0  0  0
 36 32  1  0  0  0  0
 36 37  1  0  0  0  0
M  END
>  <MODEL>
5

>  <REMARK>
 VINA RESULT:    -8.494      2.775      4.556
 INTER + INTRA:         -14.180
 INTER:                 -12.938
 INTRA:                  -1.242
 UNBOUND:                -1.217
  Name = CHEMBL125488
  12 active torsions:
  status: ('A' for Active; 'I' for Inactive)
    1  A    between atoms: C_1  and  O_2
    2  A    between atoms: O_2  and  C_3
    3  A    between atoms: C_5  and  C_6
    4  A    between atoms: C_6  and  N_7
    5  A    between atoms: C_8  and  C_10
    6  A    between atoms: C_11  and  C_12
    7  A    between atoms: N_14  and  C_15
    8  A    between atoms: C_15  and  C_16
    9  A    between atoms: C_19  and  O_20
   10  A    between atoms: C_21  and  O_22
   11  A    between atoms: O_22  and  C_23
   12  A    between atoms: C_32  and  O_33
                            x       y       z     vdW  Elec       q    Type
                         _______ _______ _______ _____ _____    ______ ____

>  <TORSDO>
F 10

>  <SCORE>
-8.494

>  <RMSD_LB>
2.775

>  <RMSD_UB>
4.556

$$$$
CHEMBL125488
 OpenBabel10162523523D

 37 40  0  0  1  0  0  0  0  0999 V2000
  135.8020  136.5210  156.2170 C   0  0  2  0  0  3  0  0  0  0  0  0
  137.3260  136.5390  155.8230 C   0  0  2  0  0  3  0  0  0  0  0  0
  138.0270  136.2160  157.1660 C   0  0  1  0  0  3  0  0  0  0  0  0
  137.8320  137.3790  158.1090 C   0  0  0  0  0  2  0  0  0  0  0  0
  136.5300  137.4040  158.4320 C   0  0  0  0  0  2  0  0  0  0  0  0
  135.8690  136.2260  157.7410 C   0  0  2  0  0  3  0  0  0  0  0  0
  137.0430  135.2390  157.8040 C   0  0  0  0  0  2  0  0  0  0  0  0
  135.5520  135.1140  154.2250 N   0  0  0  0  0  0  0  0  0  0  0  0
  135.0290  135.4310  155.4610 C   0  0  0  0  0  0  0  0  0  0  0  0
  134.0330  134.8870  155.9180 O   0  0  0  0  0  0  0  0  0  0  0  0
  136.3680  135.5690  153.9100 H   0  0  0  0  0  0  0  0  0  0  0  0
  134.9170  134.1210  153.3800 C   0  0  0  0  0  2  0  0  0  0  0  0
  133.9490  135.2350  149.8480 C   0  0  0  0  0  0  0  0  0  0  0  0
  133.8750  134.8880  151.2020 C   0  0  0  0  0  3  0  0  0  0  0  0
  135.0150  134.4630  151.9100 C   0  0  0  0  0  0  0  0  0  0  0  0
  136.2360  134.3800  151.2340 C   0  0  0  0  0  3  0  0  0  0  0  0
  136.3280  134.7210  149.8810 C   0  0  0  0  0  3  0  0  0  0  0  0
  135.1880  135.1450  149.1950 C   0  0  0  0  0  0  0  0  0  0  0  0
  132.5200  137.0320  149.2160 C   0  0  0  0  0  1  0  0  0  0  0  0
  132.8950  135.6690  149.0860 O   0  0  0  0  0  0  0  0  0  0  0  0
  135.2760  135.4750  147.8690 O   0  0  0  0  0  0  0  0  0  0  0  0
  135.0060  136.3250  147.5790 H   0  0  0  0  0  0  0  0  0  0  0  0
  137.7330  137.8660  155.1950 C   0  0  0  0  0  0  0  0  0  0  0  0
  137.0290  138.8690  155.3060 O   0  0  0  0  0  0  0  0  0  0  0  0
  138.8620  137.8320  154.4020 N   0  0  0  0  0  0  0  0  0  0  0  0
  139.3070  136.9720  154.2190 H   0  0  0  0  0  0  0  0  0  0  0  0
  139.3960  139.0500  153.8400 C   0  0  0  0  0  2  0  0  0  0  0  0
  139.6890  138.9090  152.3710 C   0  0  0  0  0  0  0  0  0  0  0  0
  140.4670  137.8380  151.9230 C   0  0  0  0  0  3  0  0  0  0  0  0
  140.7080  137.6600  150.5610 C   0  0  0  0  0  3  0  0  0  0  0  0
  140.1850  138.5580  149.6270 C   0  0  0  0  0  0  0  0  0  0  0  0
  139.4220  139.6540  150.0510 C   0  0  0  0  0  0  0  0  0  0  0  0
  139.1880  139.8200  151.4270 C   0  0  0  0  0  3  0  0  0  0  0  0
  140.4380  138.3280  148.3040 O   0  0  0  0  0  0  0  0  0  0  0  0
  139.7660  137.9780  147.7530 H   0  0  0  0  0  0  0  0  0  0  0  0
  138.8370  140.6270  149.2850 O   0  0  0  0  0  0  0  0  0  0  0  0
  137.4640  140.4760  148.9470 C   0  0  0  0  0  1  0  0  0  0  0  0
  1  9  1  6  0  0  0
  1  6  1  0  0  0  0
  2 23  1  1  0  0  0
  2  1  1  0  0  0  0
  2  3  1  0  0  0  0
  3  7  1  1  0  0  0
  3  4  1  0  0  0  0
  4  5  1  0  0  0  0
  6  7  1  6  0  0  0
  6  5  1  0  0  0  0
  8  9  1  0  0  0  0
  9 10  2  0  0  0  0
 11  8  1  0  0  0  0
 12  8  1  0  0  0  0
 13 14  1  0  0  0  0
 14 15  2  0  0  0  0
 15 12  1  0  0  0  0
 16 15  1  0  0  0  0
 17 16  2  0  0  0  0
 18 13  2  0  0  0  0
 18 17  1  0  0  0  0
 20 19  1  0  0  0  0
 20 13  1  0  0  0  0
 21 18  1  0  0  0  0
 22 21  1  0  0  0  0
 23 24  2  0  0  0  0
 25 23  1  0  0  0  0
 26 25  1  0  0  0  0
 27 25  1  0  0  0  0
 28 27  1  0  0  0  0
 29 28  1  0  0  0  0
 30 29  2  0  0  0  0
 31 32  2  0  0  0  0
 31 30  1  0  0  0  0
 32 33  1  0  0  0  0
 33 28  2  0  0  0  0
 34 31  1  0  0  0  0
 35 34  1  0  0  0  0
 36 32  1  0  0  0  0
 37 36  1  0  0  0  0
M  END
>  <MODEL>
6

>  <REMARK>
 VINA RESULT:    -8.464      1.964      6.423
 INTER + INTRA:         -14.135
 INTER:                 -12.652
 INTRA:                  -1.483
 UNBOUND:                -1.217
  Name = CHEMBL125488
  12 active torsions:
  status: ('A' for Active; 'I' for Inactive)
    1  A    between atoms: C_1  and  O_2
    2  A    between atoms: O_2  and  C_3
    3  A    between atoms: C_5  and  C_6
    4  A    between atoms: C_6  and  N_7
    5  A    between atoms: C_8  and  C_10
    6  A    between atoms: C_11  and  C_12
    7  A    between atoms: N_14  and  C_15
    8  A    between atoms: C_15  and  C_16
    9  A    between atoms: C_19  and  O_20
   10  A    between atoms: C_21  and  O_22
   11  A    between atoms: O_22  and  C_23
   12  A    between atoms: C_32  and  O_33
                            x       y       z     vdW  Elec       q    Type
                         _______ _______ _______ _____ _____    ______ ____

>  <TORSDO>
F 10

>  <SCORE>
-8.464

>  <RMSD_LB>
1.964

>  <RMSD_UB>
6.423

$$$$
CHEMBL125488
 OpenBabel10162523523D

 37 40  0  0  1  0  0  0  0  0999 V2000
  134.7760  134.3000  148.6250 C   0  0  2  0  0  3  0  0  0  0  0  0
  133.2730  134.4120  149.0790 C   0  0  2  0  0  3  0  0  0  0  0  0
  132.8050  135.7130  148.3800 C   0  0  1  0  0  3  0  0  0  0  0  0
  133.5150  136.8880  149.0110 C   0  0  0  0  0  2  0  0  0  0  0  0
  134.8070  136.7930  148.6650 C   0  0  0  0  0  2  0  0  0  0  0  0
  134.9460  135.5810  147.7620 C   0  0  2  0  0  3  0  0  0  0  0  0
  133.5800  135.6580  147.0670 C   0  0  0  0  0  2  0  0  0  0  0  0
  136.1310  133.0920  146.9770 N   0  0  0  0  0  0  0  0  0  0  0  0
  135.0320  133.0260  147.8060 C   0  0  0  0  0  0  0  0  0  0  0  0
  134.3180  132.0350  147.8840 O   0  0  0  0  0  0  0  0  0  0  0  0
  136.6840  133.9080  146.9650 H   0  0  0  0  0  0  0  0  0  0  0  0
  136.4870  131.9760  146.1220 C   0  0  0  0  0  2  0  0  0  0  0  0
  136.4590  134.0830  142.9260 C   0  0  0  0  0  0  0  0  0  0  0  0
  136.2790  133.6730  144.2530 C   0  0  0  0  0  3  0  0  0  0  0  0
  136.6630  132.3880  144.6770 C   0  0  0  0  0  0  0  0  0  0  0  0
  137.2230  131.5090  143.7440 C   0  0  0  0  0  3  0  0  0  0  0  0
  137.4070  131.9000  142.4150 C   0  0  0  0  0  3  0  0  0  0  0  0
  137.0250  133.1820  142.0110 C   0  0  0  0  0  0  0  0  0  0  0  0
  135.4340  136.2010  143.2990 C   0  0  0  0  0  1  0  0  0  0  0  0
  136.1260  135.3170  142.4300 O   0  0  0  0  0  0  0  0  0  0  0  0
  137.2020  133.5650  140.7090 O   0  0  0  0  0  0  0  0  0  0  0  0
  137.3450  132.9180  140.0460 H   0  0  0  0  0  0  0  0  0  0  0  0
  133.1390  134.4210  150.5970 C   0  0  0  0  0  0  0  0  0  0  0  0
  132.0810  134.7270  151.1440 O   0  0  0  0  0  0  0  0  0  0  0  0
  134.3040  134.1880  151.3010 N   0  0  0  0  0  0  0  0  0  0  0  0
  135.1580  134.0980  150.8190 H   0  0  0  0  0  0  0  0  0  0  0  0
  134.2750  134.0720  152.7400 C   0  0  0  0  0  2  0  0  0  0  0  0
  135.2270  135.0330  153.3990 C   0  0  0  0  0  0  0  0  0  0  0  0
  136.1130  135.7730  152.6120 C   0  0  0  0  0  3  0  0  0  0  0  0
  136.9690  136.7060  153.1970 C   0  0  0  0  0  3  0  0  0  0  0  0
  136.9600  136.9030  154.5800 C   0  0  0  0  0  0  0  0  0  0  0  0
  136.0990  136.1560  155.3960 C   0  0  0  0  0  0  0  0  0  0  0  0
  135.2430  135.2210  154.7910 C   0  0  0  0  0  3  0  0  0  0  0  0
  137.8080  137.8400  155.1000 O   0  0  0  0  0  0  0  0  0  0  0  0
  138.2610  138.4300  154.5300 H   0  0  0  0  0  0  0  0  0  0  0  0
  135.9570  136.2150  156.7560 O   0  0  0  0  0  0  0  0  0  0  0  0
  136.9760  135.6340  157.5600 C   0  0  0  0  0  1  0  0  0  0  0  0
  1  9  1  6  0  0  0
  1  2  1  0  0  0  0
  2 23  1  1  0  0  0
  3  7  1  6  0  0  0
  3  4  1  0  0  0  0
  3  2  1  0  0  0  0
  5  4  1  0  0  0  0
  6  7  1  6  0  0  0
  6  1  1  0  0  0  0
  6  5  1  0  0  0  0
  8  9  1  0  0  0  0
  9 10  2  0  0  0  0
 11  8  1  0  0  0  0
 12  8  1  0  0  0  0
 13 14  1  0  0  0  0
 14 15  2  0  0  0  0
 15 12  1  0  0  0  0
 16 15  1  0  0  0  0
 17 16  2  0  0  0  0
 18 17  1  0  0  0  0
 18 13  2  0  0  0  0
 20 13  1  0  0  0  0
 20 19  1  0  0  0  0
 21 18  1  0  0  0  0
 22 21  1  0  0  0  0
 23 24  2  0  0  0  0
 23 25  1  0  0  0  0
 25 27  1  0  0  0  0
 26 25  1  0  0  0  0
 27 28  1  0  0  0  0
 28 33  1  0  0  0  0
 29 30  1  0  0  0  0
 29 28  2  0  0  0  0
 30 31  2  0  0  0  0
 31 34  1  0  0  0  0
 31 32  1  0  0  0  0
 32 36  1  0  0  0  0
 33 32  2  0  0  0  0
 35 34  1  0  0  0  0
 36 37  1  0  0  0  0
M  END
>  <MODEL>
7

>  <REMARK>
 VINA RESULT:    -8.439      3.740      8.460
 INTER + INTRA:         -14.096
 INTER:                 -12.497
 INTRA:                  -1.599
 UNBOUND:                -1.217
  Name = CHEMBL125488
  12 active torsions:
  status: ('A' for Active; 'I' for Inactive)
    1  A    between atoms: C_1  and  O_2
    2  A    between atoms: O_2  and  C_3
    3  A    between atoms: C_5  and  C_6
    4  A    between atoms: C_6  and  N_7
    5  A    between atoms: C_8  and  C_10
    6  A    between atoms: C_11  and  C_12
    7  A    between atoms: N_14  and  C_15
    8  A    between atoms: C_15  and  C_16
    9  A    between atoms: C_19  and  O_20
   10  A    between atoms: C_21  and  O_22
   11  A    between atoms: O_22  and  C_23
   12  A    between atoms: C_32  and  O_33
                            x       y       z     vdW  Elec       q    Type
                         _______ _______ _______ _____ _____    ______ ____

>  <TORSDO>
F 10

>  <SCORE>
-8.439

>  <RMSD_LB>
3.740

>  <RMSD_UB>
8.460

$$$$
CHEMBL125488
 OpenBabel10162523523D

 37 40  0  0  1  0  0  0  0  0999 V2000
  135.2390  135.0640  148.8290 C   0  0  2  0  0  3  0  0  0  0  0  0
  134.0210  135.7640  149.5390 C   0  0  2  0  0  3  0  0  0  0  0  0
  133.1890  134.5610  150.0490 C   0  0  1  0  0  3  0  0  0  0  0  0
  132.6090  133.8310  148.8600 C   0  0  0  0  0  2  0  0  0  0  0  0
  133.6360  133.2540  148.2190 C   0  0  0  0  0  2  0  0  0  0  0  0
  134.8940  133.5600  149.0110 C   0  0  2  0  0  3  0  0  0  0  0  0
  134.2820  133.5610  150.4180 C   0  0  0  0  0  2  0  0  0  0  0  0
  136.5300  136.5560  150.2840 N   0  0  0  0  0  0  0  0  0  0  0  0
  136.5740  135.4250  149.4960 C   0  0  0  0  0  0  0  0  0  0  0  0
  137.5920  134.7640  149.3420 O   0  0  0  0  0  0  0  0  0  0  0  0
  135.6800  137.0430  150.3900 H   0  0  0  0  0  0  0  0  0  0  0  0
  137.7190  137.0390  150.9610 C   0  0  0  0  0  2  0  0  0  0  0  0
  138.3210  137.8320  154.6570 C   0  0  0  0  0  0  0  0  0  0  0  0
  138.4630  137.7820  153.2650 C   0  0  0  0  0  3  0  0  0  0  0  0
  137.5620  137.0560  152.4650 C   0  0  0  0  0  0  0  0  0  0  0  0
  136.5150  136.3660  153.0840 C   0  0  0  0  0  3  0  0  0  0  0  0
  136.3580  136.4020  154.4730 C   0  0  0  0  0  3  0  0  0  0  0  0
  137.2590  137.1330  155.2530 C   0  0  0  0  0  0  0  0  0  0  0  0
  140.4240  137.9690  155.7660 C   0  0  0  0  0  1  0  0  0  0  0  0
  139.1420  138.5220  155.5100 O   0  0  0  0  0  0  0  0  0  0  0  0
  137.1090  137.1670  156.6130 O   0  0  0  0  0  0  0  0  0  0  0  0
  137.8520  137.3190  157.1630 H   0  0  0  0  0  0  0  0  0  0  0  0
  133.2760  136.7000  148.5940 C   0  0  0  0  0  0  0  0  0  0  0  0
  132.2930  137.3370  148.9690 O   0  0  0  0  0  0  0  0  0  0  0  0
  133.6990  136.6830  147.2800 N   0  0  0  0  0  0  0  0  0  0  0  0
  134.3910  136.0430  146.9960 H   0  0  0  0  0  0  0  0  0  0  0  0
  133.1330  137.6020  146.3210 C   0  0  0  0  0  2  0  0  0  0  0  0
  134.1980  138.3580  145.5730 C   0  0  0  0  0  0  0  0  0  0  0  0
  133.8810  138.9780  144.3620 C   0  0  0  0  0  3  0  0  0  0  0  0
  134.8380  139.7270  143.6780 C   0  0  0  0  0  3  0  0  0  0  0  0
  136.1320  139.8560  144.1900 C   0  0  0  0  0  0  0  0  0  0  0  0
  136.4840  139.2250  145.3910 C   0  0  0  0  0  0  0  0  0  0  0  0
  135.5070  138.4740  146.0680 C   0  0  0  0  0  3  0  0  0  0  0  0
  137.0270  140.6130  143.4890 O   0  0  0  0  0  0  0  0  0  0  0  0
  137.8710  140.2640  143.2760 H   0  0  0  0  0  0  0  0  0  0  0  0
  137.6920  139.2410  146.0350 O   0  0  0  0  0  0  0  0  0  0  0  0
  137.9710  138.1970  146.9590 C   0  0  0  0  0  1  0  0  0  0  0  0
  1  6  1  0  0  0  0
  1  9  1  1  0  0  0
  1  2  1  0  0  0  0
  2 23  1  6  0  0  0
  2  3  1  0  0  0  0
  3  4  1  6  0  0  0
  3  7  1  0  0  0  0
  5  4  1  0  0  0  0
  6  5  1  6  0  0  0
  6  7  1  0  0  0  0
  8 11  1  0  0  0  0
  8 12  1  0  0  0  0
  9  8  1  0  0  0  0
 10  9  2  0  0  0  0
 12 15  1  0  0  0  0
 13 18  1  0  0  0  0
 13 20  1  0  0  0  0
 14 13  2  0  0  0  0
 15 16  2  0  0  0  0
 15 14  1  0  0  0  0
 16 17  1  0  0  0  0
 17 18  2  0  0  0  0
 18 21  1  0  0  0  0
 20 19  1  0  0  0  0
 21 22  1  0  0  0  0
 23 24  2  0  0  0  0
 25 23  1  0  0  0  0
 26 25  1  0  0  0  0
 27 25  1  0  0  0  0
 28 33  1  0  0  0  0
 28 27  1  0  0  0  0
 29 28  2  0  0  0  0
 30 31  2  0  0  0  0
 30 29  1  0  0  0  0
 31 32  1  0  0  0  0
 32 36  1  0  0  0  0
 32 33  2  0  0  0  0
 34 31  1  0  0  0  0
 35 34  1  0  0  0  0
 36 37  1  0  0  0  0
M  END
>  <MODEL>
8

>  <REMARK>
 VINA RESULT:    -8.415      2.931      4.200
 INTER + INTRA:         -14.060
 INTER:                 -12.334
 INTRA:                  -1.727
 UNBOUND:                -1.217
  Name = CHEMBL125488
  12 active torsions:
  status: ('A' for Active; 'I' for Inactive)
    1  A    between atoms: C_1  and  O_2
    2  A    between atoms: O_2  and  C_3
    3  A    between atoms: C_5  and  C_6
    4  A    between atoms: C_6  and  N_7
    5  A    between atoms: C_8  and  C_10
    6  A    between atoms: C_11  and  C_12
    7  A    between atoms: N_14  and  C_15
    8  A    between atoms: C_15  and  C_16
    9  A    between atoms: C_19  and  O_20
   10  A    between atoms: C_21  and  O_22
   11  A    between atoms: O_22  and  C_23
   12  A    between atoms: C_32  and  O_33
                            x       y       z     vdW  Elec       q    Type
                         _______ _______ _______ _____ _____    ______ ____

>  <TORSDO>
F 10

>  <SCORE>
-8.415

>  <RMSD_LB>
2.931

>  <RMSD_UB>
4.200

$$$$
CHEMBL125488
 OpenBabel10162523523D

 37 40  0  0  1  0  0  0  0  0999 V2000
  140.1000  137.8270  152.5560 C   0  0  2  0  0  3  0  0  0  0  0  0
  141.1620  138.8740  152.0500 C   0  0  2  0  0  3  0  0  0  0  0  0
  140.5880  139.3030  150.6770 C   0  0  1  0  0  3  0  0  0  0  0  0
  140.6760  138.1340  149.7250 C   0  0  0  0  0  2  0  0  0  0  0  0
  139.8020  137.2130  150.1570 C   0  0  0  0  0  2  0  0  0  0  0  0
  139.0960  137.7930  151.3700 C   0  0  2  0  0  3  0  0  0  0  0  0
  139.0850  139.2670  150.9430 C   0  0  0  0  0  2  0  0  0  0  0  0
  138.2560  137.6150  154.1570 N   0  0  0  0  0  0  0  0  0  0  0  0
  139.4250  138.2820  153.8580 C   0  0  0  0  0  0  0  0  0  0  0  0
  139.8870  139.1630  154.5700 O   0  0  0  0  0  0  0  0  0  0  0  0
  137.9370  136.9000  153.5590 H   0  0  0  0  0  0  0  0  0  0  0  0
  137.4900  137.9510  155.3420 C   0  0  0  0  0  2  0  0  0  0  0  0
  134.6770  135.3620  155.1350 C   0  0  0  0  0  0  0  0  0  0  0  0
  135.5690  136.3890  154.8040 C   0  0  0  0  0  3  0  0  0  0  0  0
  136.5180  136.8590  155.7310 C   0  0  0  0  0  0  0  0  0  0  0  0
  136.5530  136.2880  157.0070 C   0  0  0  0  0  3  0  0  0  0  0  0
  135.6690  135.2630  157.3570 C   0  0  0  0  0  3  0  0  0  0  0  0
  134.7370  134.8050  156.4220 C   0  0  0  0  0  0  0  0  0  0  0  0
  134.1950  134.2250  153.0990 C   0  0  0  0  0  1  0  0  0  0  0  0
  133.7320  134.8360  154.2940 O   0  0  0  0  0  0  0  0  0  0  0  0
  133.8680  133.8040  156.7640 O   0  0  0  0  0  0  0  0  0  0  0  0
  134.1910  133.0210  157.1670 H   0  0  0  0  0  0  0  0  0  0  0  0
  142.5630  138.2770  151.9960 C   0  0  0  0  0  0  0  0  0  0  0  0
  142.7760  137.1130  152.3320 O   0  0  0  0  0  0  0  0  0  0  0  0
  143.5760  139.1570  151.6710 N   0  0  0  0  0  0  0  0  0  0  0  0
  143.3760  140.1150  151.5600 H   0  0  0  0  0  0  0  0  0  0  0  0
  144.9270  138.6800  151.4920 C   0  0  0  0  0  2  0  0  0  0  0  0
  145.7430  138.8200  152.7480 C   0  0  0  0  0  0  0  0  0  0  0  0
  145.9610  137.7010  153.5560 C   0  0  0  0  0  3  0  0  0  0  0  0
  146.7560  137.7970  154.6980 C   0  0  0  0  0  3  0  0  0  0  0  0
  147.3340  139.0180  155.0560 C   0  0  0  0  0  0  0  0  0  0  0  0
  147.1120  140.1610  154.2770 C   0  0  0  0  0  0  0  0  0  0  0  0
  146.3090  140.0470  153.1300 C   0  0  0  0  0  3  0  0  0  0  0  0
  148.1170  139.0530  156.1750 O   0  0  0  0  0  0  0  0  0  0  0  0
  149.0370  138.8850  156.1090 H   0  0  0  0  0  0  0  0  0  0  0  0
  147.5920  141.4280  154.4750 O   0  0  0  0  0  0  0  0  0  0  0  0
  148.8580  141.7570  153.9180 C   0  0  0  0  0  1  0  0  0  0  0  0
  1  9  1  1  0  0  0
  2 23  1  6  0  0  0
  2  1  1  0  0  0  0
  3  4  1  6  0  0  0
  3  7  1  0  0  0  0
  3  2  1  0  0  0  0
  4  5  1  0  0  0  0
  6  5  1  6  0  0  0
  6  1  1  0  0  0  0
  7  6  1  0  0  0  0
  8 12  1  0  0  0  0
  9  8  1  0  0  0  0
  9 10  2  0  0  0  0
 11  8  1  0  0  0  0
 12 15  1  0  0  0  0
 13 18  1  0  0  0  0
 14 13  2  0  0  0  0
 14 15  1  0  0  0  0
 15 16  2  0  0  0  0
 16 17  1  0  0  0  0
 18 21  1  0  0  0  0
 18 17  2  0  0  0  0
 19 20  1  0  0  0  0
 20 13  1  0  0  0  0
 21 22  1  0  0  0  0
 23 24  2  0  0  0  0
 25 23  1  0  0  0  0
 26 25  1  0  0  0  0
 27 25  1  0  0  0  0
 27 28  1  0  0  0  0
 28 33  2  0  0  0  0
 28 29  1  0  0  0  0
 29 30  2  0  0  0  0
 30 31  1  0  0  0  0
 31 34  1  0  0  0  0
 32 36  1  0  0  0  0
 32 31  2  0  0  0  0
 33 32  1  0  0  0  0
 35 34  1  0  0  0  0
 37 36  1  0  0  0  0
M  END
>  <MODEL>
9

>  <REMARK>
 VINA RESULT:    -8.370      4.619      7.536
 INTER + INTRA:         -13.991
 INTER:                 -12.774
 INTRA:                  -1.217
 UNBOUND:                -1.217
  Name = CHEMBL125488
  12 active torsions:
  status: ('A' for Active; 'I' for Inactive)
    1  A    between atoms: C_1  and  O_2
    2  A    between atoms: O_2  and  C_3
    3  A    between atoms: C_5  and  C_6
    4  A    between atoms: C_6  and  N_7
    5  A    between atoms: C_8  and  C_10
    6  A    between atoms: C_11  and  C_12
    7  A    between atoms: N_14  and  C_15
    8  A    between atoms: C_15  and  C_16
    9  A    between atoms: C_19  and  O_20
   10  A    between atoms: C_21  and  O_22
   11  A    between atoms: O_22  and  C_23
   12  A    between atoms: C_32  and  O_33
                            x       y       z     vdW  Elec       q    Type
                         _______ _______ _______ _____ _____    ______ ____

>  <TORSDO>
F 10

>  <SCORE>
-8.370

>  <RMSD_LB>
4.619

>  <RMSD_UB>
7.536

$$$$
