CHEMBL5281015
 OpenBabel10172500063D

 28 29  0  0  0  0  0  0  0  0999 V2000
  146.3030  137.8540  149.0240 C   0  0  0  0  0  0  0  0  0  0  0  0
  146.9910  137.2890  148.1710 O   0  0  0  0  0  0  0  0  0  0  0  0
  145.0310  137.2320  149.5650 C   0  0  0  0  0  2  0  0  0  0  0  0
  145.3380  136.3060  150.7340 C   0  0  0  0  0  2  0  0  0  0  0  0
  144.7310  138.6950  153.6500 C   0  0  0  0  0  0  0  0  0  0  0  0
  144.5560  137.9770  152.4620 C   0  0  0  0  0  3  0  0  0  0  0  0
  145.5250  137.0600  152.0250 C   0  0  0  0  0  0  0  0  0  0  0  0
  146.6710  136.8490  152.8020 C   0  0  0  0  0  3  0  0  0  0  0  0
  146.8600  137.5600  153.9860 C   0  0  0  0  0  3  0  0  0  0  0  0
  145.8940  138.4770  154.4020 C   0  0  0  0  0  0  0  0  0  0  0  0
  142.6020  139.1290  154.6290 C   0  0  0  0  0  1  0  0  0  0  0  0
  143.8470  139.6150  154.1500 O   0  0  0  0  0  0  0  0  0  0  0  0
  146.0860  139.1800  155.5620 O   0  0  0  0  0  0  0  0  0  0  0  0
  145.6270  138.9320  156.3410 H   0  0  0  0  0  0  0  0  0  0  0  0
  146.6870  139.2030  149.5940 C   0  0  0  0  0  2  0  0  0  0  0  0
  145.8980  140.3360  148.9470 C   0  0  0  0  0  2  0  0  0  0  0  0
  146.7750  141.5710  148.7520 C   0  0  0  0  0  2  0  0  0  0  0  0
  146.4080  142.6700  149.7480 C   0  0  0  0  0  2  0  0  0  0  0  0
  146.8940  142.3490  151.1380 C   0  0  0  0  0  0  0  0  0  0  0  0
  148.2470  142.0490  151.3640 C   0  0  0  0  0  3  0  0  0  0  0  0
  148.7110  141.7550  152.6500 C   0  0  0  0  0  3  0  0  0  0  0  0
  147.8110  141.7550  153.7090 C   0  0  0  0  0  0  0  0  0  0  0  0
  146.4660  142.0360  153.4900 C   0  0  0  0  0  0  0  0  0  0  0  0
  145.9970  142.3300  152.2170 C   0  0  0  0  0  3  0  0  0  0  0  0
  148.2050  141.4840  154.9910 O   0  0  0  0  0  0  0  0  0  0  0  0
  149.1050  141.3040  155.1760 H   0  0  0  0  0  0  0  0  0  0  0  0
  145.5890  142.0280  154.5370 O   0  0  0  0  0  0  0  0  0  0  0  0
  145.6910  141.4040  155.2280 H   0  0  0  0  0  0  0  0  0  0  0  0
  1  3  1  0  0  0  0
  1 15  1  0  0  0  0
  2  1  2  0  0  0  0
  3  4  1  0  0  0  0
  4  7  1  0  0  0  0
  5 12  1  0  0  0  0
  5 10  1  0  0  0  0
  6  5  2  0  0  0  0
  7  6  1  0  0  0  0
  7  8  2  0  0  0  0
  8  9  1  0  0  0  0
  9 10  2  0  0  0  0
 10 13  1  0  0  0  0
 12 11  1  0  0  0  0
 13 14  1  0  0  0  0
 16 15  1  0  0  0  0
 17 16  1  0  0  0  0
 17 18  1  0  0  0  0
 18 19  1  0  0  0  0
 19 20  2  0  0  0  0
 19 24  1  0  0  0  0
 20 21  1  0  0  0  0
 21 22  2  0  0  0  0
 22 25  1  0  0  0  0
 23 22  1  0  0  0  0
 23 27  1  0  0  0  0
 24 23  2  0  0  0  0
 25 26  1  0  0  0  0
 27 28  1  0  0  0  0
M  END
>  <MODEL>
1

>  <REMARK>
 VINA RESULT:    -7.130      0.000      0.000
 INTER + INTRA:         -13.905
 INTER:                 -11.494
 INTRA:                  -2.411
 UNBOUND:                -2.399
  Name = CHEMBL5281015
  13 active torsions:
  status: ('A' for Active; 'I' for Inactive)
    1  A    between atoms: C_1  and  O_2
    2  A    between atoms: O_2  and  C_3
    3  A    between atoms: C_5  and  C_6
    4  A    between atoms: C_6  and  C_7
    5  A    between atoms: C_7  and  C_8
    6  A    between atoms: C_8  and  C_10
    7  A    between atoms: C_10  and  C_11
    8  A    between atoms: C_11  and  C_12
    9  A    between atoms: C_12  and  C_13
   10  A    between atoms: C_13  and  C_14
   11  A    between atoms: C_17  and  O_18
   12  A    between atoms: C_19  and  O_20
   13  A    between atoms: C_24  and  O_25
                            x       y       z     vdW  Elec       q    Type
                         _______ _______ _______ _____ _____    ______ ____

>  <TORSDO>
F 12

>  <SCORE>
-7.130

>  <RMSD_LB>
0.000

>  <RMSD_UB>
0.000

$$$$
CHEMBL5281015
 OpenBabel10172500063D

 28 29  0  0  0  0  0  0  0  0999 V2000
  144.8190  137.8320  150.5700 C   0  0  0  0  0  0  0  0  0  0  0  0
  145.8850  137.5420  151.1170 O   0  0  0  0  0  0  0  0  0  0  0  0
  143.5000  137.2440  151.0310 C   0  0  0  0  0  2  0  0  0  0  0  0
  143.2520  137.5620  152.5000 C   0  0  0  0  0  2  0  0  0  0  0  0
  140.0080  138.2470  154.3940 C   0  0  0  0  0  0  0  0  0  0  0  0
  141.3670  138.0890  154.1000 C   0  0  0  0  0  3  0  0  0  0  0  0
  141.7880  137.7500  152.8040 C   0  0  0  0  0  0  0  0  0  0  0  0
  140.8350  137.5900  151.7910 C   0  0  0  0  0  3  0  0  0  0  0  0
  139.4780  137.7410  152.0710 C   0  0  0  0  0  3  0  0  0  0  0  0
  139.0720  138.0660  153.3660 C   0  0  0  0  0  0  0  0  0  0  0  0
  139.4720  137.5370  156.6050 C   0  0  0  0  0  1  0  0  0  0  0  0
  139.5030  138.5670  155.6270 O   0  0  0  0  0  0  0  0  0  0  0  0
  137.7370  138.2070  153.6410 O   0  0  0  0  0  0  0  0  0  0  0  0
  137.4260  138.9800  154.0700 H   0  0  0  0  0  0  0  0  0  0  0  0
  144.7540  138.7990  149.4070 C   0  0  0  0  0  2  0  0  0  0  0  0
  143.7390  139.9100  149.6500 C   0  0  0  0  0  2  0  0  0  0  0  0
  144.1560  140.7800  150.8340 C   0  0  0  0  0  2  0  0  0  0  0  0
  145.4600  141.5210  150.5400 C   0  0  0  0  0  2  0  0  0  0  0  0
  146.4180  141.4470  151.7020 C   0  0  0  0  0  0  0  0  0  0  0  0
  147.7090  141.9890  151.5920 C   0  0  0  0  0  3  0  0  0  0  0  0
  148.6040  141.9310  152.6640 C   0  0  0  0  0  3  0  0  0  0  0  0
  148.2040  141.3210  153.8460 C   0  0  0  0  0  0  0  0  0  0  0  0
  146.9310  140.7680  153.9570 C   0  0  0  0  0  0  0  0  0  0  0  0
  146.0370  140.8210  152.8980 C   0  0  0  0  0  3  0  0  0  0  0  0
  149.0310  141.2410  154.9330 O   0  0  0  0  0  0  0  0  0  0  0  0
  149.7090  140.5950  154.9600 H   0  0  0  0  0  0  0  0  0  0  0  0
  146.5510  140.1650  155.1220 O   0  0  0  0  0  0  0  0  0  0  0  0
  146.1710  139.3090  155.1050 H   0  0  0  0  0  0  0  0  0  0  0  0
  1  3  1  0  0  0  0
  1  2  2  0  0  0  0
  3  4  1  0  0  0  0
  4  7  1  0  0  0  0
  5 12  1  0  0  0  0
  6  5  1  0  0  0  0
  7  6  2  0  0  0  0
  8  9  2  0  0  0  0
  8  7  1  0  0  0  0
  9 10  1  0  0  0  0
 10 13  1  0  0  0  0
 10  5  2  0  0  0  0
 12 11  1  0  0  0  0
 13 14  1  0  0  0  0
 15 16  1  0  0  0  0
 15  1  1  0  0  0  0
 16 17  1  0  0  0  0
 18 17  1  0  0  0  0
 18 19  1  0  0  0  0
 19 24  1  0  0  0  0
 20 19  2  0  0  0  0
 20 21  1  0  0  0  0
 21 22  2  0  0  0  0
 22 23  1  0  0  0  0
 22 25  1  0  0  0  0
 23 27  1  0  0  0  0
 24 23  2  0  0  0  0
 25 26  1  0  0  0  0
 28 27  1  0  0  0  0
M  END
>  <MODEL>
2

>  <REMARK>
 VINA RESULT:    -6.466      2.710      3.846
 INTER + INTRA:         -12.834
 INTER:                 -11.296
 INTRA:                  -1.538
 UNBOUND:                -2.399
  Name = CHEMBL5281015
  13 active torsions:
  status: ('A' for Active; 'I' for Inactive)
    1  A    between atoms: C_1  and  O_2
    2  A    between atoms: O_2  and  C_3
    3  A    between atoms: C_5  and  C_6
    4  A    between atoms: C_6  and  C_7
    5  A    between atoms: C_7  and  C_8
    6  A    between atoms: C_8  and  C_10
    7  A    between atoms: C_10  and  C_11
    8  A    between atoms: C_11  and  C_12
    9  A    between atoms: C_12  and  C_13
   10  A    between atoms: C_13  and  C_14
   11  A    between atoms: C_17  and  O_18
   12  A    between atoms: C_19  and  O_20
   13  A    between atoms: C_24  and  O_25
                            x       y       z     vdW  Elec       q    Type
                         _______ _______ _______ _____ _____    ______ ____

>  <TORSDO>
F 12

>  <SCORE>
-6.466

>  <RMSD_LB>
2.710

>  <RMSD_UB>
3.846

$$$$
CHEMBL5281015
 OpenBabel10172500063D

 28 29  0  0  0  0  0  0  0  0999 V2000
  143.8000  139.8430  149.4340 C   0  0  0  0  0  0  0  0  0  0  0  0
  144.7030  140.0620  148.6240 O   0  0  0  0  0  0  0  0  0  0  0  0
  143.8430  140.3910  150.8470 C   0  0  0  0  0  2  0  0  0  0  0  0
  144.8190  141.5560  150.9440 C   0  0  0  0  0  2  0  0  0  0  0  0
  146.5890  140.2030  154.0450 C   0  0  0  0  0  0  0  0  0  0  0  0
  145.6460  140.3880  153.0270 C   0  0  0  0  0  3  0  0  0  0  0  0
  145.8490  141.3490  152.0240 C   0  0  0  0  0  0  0  0  0  0  0  0
  147.0200  142.1160  152.0330 C   0  0  0  0  0  3  0  0  0  0  0  0
  147.9660  141.9440  153.0430 C   0  0  0  0  0  3  0  0  0  0  0  0
  147.7460  140.9940  154.0410 C   0  0  0  0  0  0  0  0  0  0  0  0
  146.5670  137.9220  154.7350 C   0  0  0  0  0  1  0  0  0  0  0  0
  146.4730  139.2990  155.0680 O   0  0  0  0  0  0  0  0  0  0  0  0
  148.6730  140.8320  155.0360 O   0  0  0  0  0  0  0  0  0  0  0  0
  149.1270  140.0170  155.1260 H   0  0  0  0  0  0  0  0  0  0  0  0
  142.5830  139.0190  149.0690 C   0  0  0  0  0  2  0  0  0  0  0  0
  142.9500  137.5710  148.7660 C   0  0  0  0  0  2  0  0  0  0  0  0
  142.4880  136.6450  149.8890 C   0  0  0  0  0  2  0  0  0  0  0  0
  141.2270  137.1840  150.5640 C   0  0  0  0  0  2  0  0  0  0  0  0
  141.5130  137.6960  151.9530 C   0  0  0  0  0  0  0  0  0  0  0  0
  142.7340  137.4000  152.5800 C   0  0  0  0  0  3  0  0  0  0  0  0
  143.0130  137.8730  153.8660 C   0  0  0  0  0  3  0  0  0  0  0  0
  142.0600  138.6390  154.5250 C   0  0  0  0  0  0  0  0  0  0  0  0
  140.8410  138.9240  153.9150 C   0  0  0  0  0  0  0  0  0  0  0  0
  140.5560  138.4580  152.6400 C   0  0  0  0  0  3  0  0  0  0  0  0
  142.2770  139.1390  155.7800 O   0  0  0  0  0  0  0  0  0  0  0  0
  142.2530  140.0630  155.9270 H   0  0  0  0  0  0  0  0  0  0  0  0
  139.9090  139.6740  154.5750 O   0  0  0  0  0  0  0  0  0  0  0  0
  139.1650  139.2590  154.9650 H   0  0  0  0  0  0  0  0  0  0  0  0
  1  3  1  0  0  0  0
  2  1  2  0  0  0  0
  3  4  1  0  0  0  0
  4  7  1  0  0  0  0
  5 12  1  0  0  0  0
  6  5  2  0  0  0  0
  7  8  2  0  0  0  0
  7  6  1  0  0  0  0
  8  9  1  0  0  0  0
  9 10  2  0  0  0  0
 10  5  1  0  0  0  0
 10 13  1  0  0  0  0
 11 12  1  0  0  0  0
 13 14  1  0  0  0  0
 15  1  1  0  0  0  0
 16 15  1  0  0  0  0
 16 17  1  0  0  0  0
 17 18  1  0  0  0  0
 18 19  1  0  0  0  0
 19 20  2  0  0  0  0
 19 24  1  0  0  0  0
 20 21  1  0  0  0  0
 21 22  2  0  0  0  0
 22 25  1  0  0  0  0
 23 22  1  0  0  0  0
 23 27  1  0  0  0  0
 24 23  2  0  0  0  0
 25 26  1  0  0  0  0
 27 28  1  0  0  0  0
M  END
>  <MODEL>
3

>  <REMARK>
 VINA RESULT:    -6.451      2.260      5.247
 INTER + INTRA:         -12.809
 INTER:                 -11.126
 INTRA:                  -1.683
 UNBOUND:                -2.399
  Name = CHEMBL5281015
  13 active torsions:
  status: ('A' for Active; 'I' for Inactive)
    1  A    between atoms: C_1  and  O_2
    2  A    between atoms: O_2  and  C_3
    3  A    between atoms: C_5  and  C_6
    4  A    between atoms: C_6  and  C_7
    5  A    between atoms: C_7  and  C_8
    6  A    between atoms: C_8  and  C_10
    7  A    between atoms: C_10  and  C_11
    8  A    between atoms: C_11  and  C_12
    9  A    between atoms: C_12  and  C_13
   10  A    between atoms: C_13  and  C_14
   11  A    between atoms: C_17  and  O_18
   12  A    between atoms: C_19  and  O_20
   13  A    between atoms: C_24  and  O_25
                            x       y       z     vdW  Elec       q    Type
                         _______ _______ _______ _____ _____    ______ ____

>  <TORSDO>
F 12

>  <SCORE>
-6.451

>  <RMSD_LB>
2.260

>  <RMSD_UB>
5.247

$$$$
CHEMBL5281015
 OpenBabel10172500063D

 28 29  0  0  0  0  0  0  0  0999 V2000
  147.2050  138.3050  153.7060 C   0  0  0  0  0  0  0  0  0  0  0  0
  147.7780  138.0920  152.6360 O   0  0  0  0  0  0  0  0  0  0  0  0
  145.9520  137.5510  154.1060 C   0  0  0  0  0  2  0  0  0  0  0  0
  144.7890  138.5120  154.3150 C   0  0  0  0  0  2  0  0  0  0  0  0
  141.1780  137.9150  153.2270 C   0  0  0  0  0  0  0  0  0  0  0  0
  142.2930  138.2670  153.9950 C   0  0  0  0  0  3  0  0  0  0  0  0
  143.5920  138.1500  153.4740 C   0  0  0  0  0  0  0  0  0  0  0  0
  143.7670  137.6950  152.1620 C   0  0  0  0  0  3  0  0  0  0  0  0
  142.6650  137.3380  151.3870 C   0  0  0  0  0  3  0  0  0  0  0  0
  141.3810  137.4470  151.9210 C   0  0  0  0  0  0  0  0  0  0  0  0
  139.4040  139.2490  154.0970 C   0  0  0  0  0  1  0  0  0  0  0  0
  139.8770  137.9860  153.6520 O   0  0  0  0  0  0  0  0  0  0  0  0
  140.3000  137.0890  151.1610 O   0  0  0  0  0  0  0  0  0  0  0  0
  139.5840  136.6260  151.5520 H   0  0  0  0  0  0  0  0  0  0  0  0
  147.7190  139.3280  154.6980 C   0  0  0  0  0  2  0  0  0  0  0  0
  148.5260  140.4240  154.0120 C   0  0  0  0  0  2  0  0  0  0  0  0
  147.9850  141.8060  154.3720 C   0  0  0  0  0  2  0  0  0  0  0  0
  146.5380  141.9690  153.9080 C   0  0  0  0  0  2  0  0  0  0  0  0
  146.4240  141.9190  152.4060 C   0  0  0  0  0  0  0  0  0  0  0  0
  147.4490  142.4410  151.6000 C   0  0  0  0  0  3  0  0  0  0  0  0
  147.3570  142.3960  150.2060 C   0  0  0  0  0  3  0  0  0  0  0  0
  146.2300  141.8320  149.6210 C   0  0  0  0  0  0  0  0  0  0  0  0
  145.2040  141.3270  150.4130 C   0  0  0  0  0  0  0  0  0  0  0  0
  145.2870  141.3670  151.7980 C   0  0  0  0  0  3  0  0  0  0  0  0
  146.0860  141.7500  148.2620 O   0  0  0  0  0  0  0  0  0  0  0  0
  145.3450  142.1420  147.8460 H   0  0  0  0  0  0  0  0  0  0  0  0
  144.0980  140.7790  149.8280 O   0  0  0  0  0  0  0  0  0  0  0  0
  143.9600  139.8530  149.8610 H   0  0  0  0  0  0  0  0  0  0  0  0
  1  3  1  0  0  0  0
  1 15  1  0  0  0  0
  2  1  2  0  0  0  0
  3  4  1  0  0  0  0
  5 12  1  0  0  0  0
  5  6  1  0  0  0  0
  7  6  2  0  0  0  0
  7  4  1  0  0  0  0
  8  7  1  0  0  0  0
  9 10  1  0  0  0  0
  9  8  2  0  0  0  0
 10  5  2  0  0  0  0
 12 11  1  0  0  0  0
 13 14  1  0  0  0  0
 13 10  1  0  0  0  0
 16 17  1  0  0  0  0
 16 15  1  0  0  0  0
 18 17  1  0  0  0  0
 19 18  1  0  0  0  0
 20 19  2  0  0  0  0
 21 20  1  0  0  0  0
 22 21  2  0  0  0  0
 22 23  1  0  0  0  0
 23 24  2  0  0  0  0
 24 19  1  0  0  0  0
 25 22  1  0  0  0  0
 26 25  1  0  0  0  0
 27 28  1  0  0  0  0
 27 23  1  0  0  0  0
M  END
>  <MODEL>
4

>  <REMARK>
 VINA RESULT:    -6.403      2.471      4.425
 INTER + INTRA:         -12.732
 INTER:                 -11.017
 INTRA:                  -1.715
 UNBOUND:                -2.399
  Name = CHEMBL5281015
  13 active torsions:
  status: ('A' for Active; 'I' for Inactive)
    1  A    between atoms: C_1  and  O_2
    2  A    between atoms: O_2  and  C_3
    3  A    between atoms: C_5  and  C_6
    4  A    between atoms: C_6  and  C_7
    5  A    between atoms: C_7  and  C_8
    6  A    between atoms: C_8  and  C_10
    7  A    between atoms: C_10  and  C_11
    8  A    between atoms: C_11  and  C_12
    9  A    between atoms: C_12  and  C_13
   10  A    between atoms: C_13  and  C_14
   11  A    between atoms: C_17  and  O_18
   12  A    between atoms: C_19  and  O_20
   13  A    between atoms: C_24  and  O_25
                            x       y       z     vdW  Elec       q    Type
                         _______ _______ _______ _____ _____    ______ ____

>  <TORSDO>
F 12

>  <SCORE>
-6.403

>  <RMSD_LB>
2.471

>  <RMSD_UB>
4.425

$$$$
CHEMBL5281015
 OpenBabel10172500063D

 28 29  0  0  0  0  0  0  0  0999 V2000
  147.3790  138.9530  154.0880 C   0  0  0  0  0  0  0  0  0  0  0  0
  148.1570  138.4940  153.2500 O   0  0  0  0  0  0  0  0  0  0  0  0
  147.2870  140.4410  154.3620 C   0  0  0  0  0  2  0  0  0  0  0  0
  145.9800  141.0080  153.8250 C   0  0  0  0  0  2  0  0  0  0  0  0
  145.2990  140.7700  150.0760 C   0  0  0  0  0  0  0  0  0  0  0  0
  145.2350  140.5420  151.4550 C   0  0  0  0  0  3  0  0  0  0  0  0
  146.0390  141.2740  152.3430 C   0  0  0  0  0  0  0  0  0  0  0  0
  146.8990  142.2590  151.8410 C   0  0  0  0  0  3  0  0  0  0  0  0
  146.9740  142.4940  150.4690 C   0  0  0  0  0  3  0  0  0  0  0  0
  146.1790  141.7510  149.5960 C   0  0  0  0  0  0  0  0  0  0  0  0
  143.1570  140.0420  149.3260 C   0  0  0  0  0  1  0  0  0  0  0  0
  144.5630  140.1010  149.1340 O   0  0  0  0  0  0  0  0  0  0  0  0
  146.2610  141.9780  148.2480 O   0  0  0  0  0  0  0  0  0  0  0  0
  146.7390  141.3860  147.7010 H   0  0  0  0  0  0  0  0  0  0  0  0
  146.4570  138.0620  154.8940 C   0  0  0  0  0  2  0  0  0  0  0  0
  145.6210  137.1550  153.9980 C   0  0  0  0  0  2  0  0  0  0  0  0
  144.2370  137.7540  153.7550 C   0  0  0  0  0  2  0  0  0  0  0  0
  143.6930  137.3450  152.3860 C   0  0  0  0  0  2  0  0  0  0  0  0
  142.1990  137.5250  152.3030 C   0  0  0  0  0  0  0  0  0  0  0  0
  141.4810  138.0150  153.4070 C   0  0  0  0  0  3  0  0  0  0  0  0
  140.0960  138.1920  153.3390 C   0  0  0  0  0  3  0  0  0  0  0  0
  139.4300  137.8690  152.1640 C   0  0  0  0  0  0  0  0  0  0  0  0
  140.1330  137.3690  151.0720 C   0  0  0  0  0  0  0  0  0  0  0  0
  141.5070  137.1900  151.1290 C   0  0  0  0  0  3  0  0  0  0  0  0
  138.0770  138.0280  152.0330 O   0  0  0  0  0  0  0  0  0  0  0  0
  137.4930  137.4200  152.4400 H   0  0  0  0  0  0  0  0  0  0  0  0
  139.4670  137.0490  149.9220 O   0  0  0  0  0  0  0  0  0  0  0  0
  138.5680  136.7870  149.9590 H   0  0  0  0  0  0  0  0  0  0  0  0
  1  3  1  0  0  0  0
  1 15  1  0  0  0  0
  2  1  2  0  0  0  0
  4  3  1  0  0  0  0
  5  6  1  0  0  0  0
  6  7  2  0  0  0  0
  7  4  1  0  0  0  0
  8  7  1  0  0  0  0
  9  8  2  0  0  0  0
 10  5  2  0  0  0  0
 10  9  1  0  0  0  0
 12 11  1  0  0  0  0
 12  5  1  0  0  0  0
 13 10  1  0  0  0  0
 14 13  1  0  0  0  0
 16 15  1  0  0  0  0
 17 16  1  0  0  0  0
 18 17  1  0  0  0  0
 19 18  1  0  0  0  0
 19 20  1  0  0  0  0
 21 20  2  0  0  0  0
 22 21  1  0  0  0  0
 23 24  1  0  0  0  0
 23 22  2  0  0  0  0
 24 19  2  0  0  0  0
 25 22  1  0  0  0  0
 25 26  1  0  0  0  0
 27 28  1  0  0  0  0
 27 23  1  0  0  0  0
M  END
>  <MODEL>
5

>  <REMARK>
 VINA RESULT:    -6.183      3.026      6.789
 INTER + INTRA:         -12.378
 INTER:                 -10.681
 INTRA:                  -1.697
 UNBOUND:                -2.399
  Name = CHEMBL5281015
  13 active torsions:
  status: ('A' for Active; 'I' for Inactive)
    1  A    between atoms: C_1  and  O_2
    2  A    between atoms: O_2  and  C_3
    3  A    between atoms: C_5  and  C_6
    4  A    between atoms: C_6  and  C_7
    5  A    between atoms: C_7  and  C_8
    6  A    between atoms: C_8  and  C_10
    7  A    between atoms: C_10  and  C_11
    8  A    between atoms: C_11  and  C_12
    9  A    between atoms: C_12  and  C_13
   10  A    between atoms: C_13  and  C_14
   11  A    between atoms: C_17  and  O_18
   12  A    between atoms: C_19  and  O_20
   13  A    between atoms: C_24  and  O_25
                            x       y       z     vdW  Elec       q    Type
                         _______ _______ _______ _____ _____    ______ ____

>  <TORSDO>
F 12

>  <SCORE>
-6.183

>  <RMSD_LB>
3.026

>  <RMSD_UB>
6.789

$$$$
CHEMBL5281015
 OpenBabel10172500063D

 28 29  0  0  0  0  0  0  0  0999 V2000
  145.9440  138.4820  148.1490 C   0  0  0  0  0  0  0  0  0  0  0  0
  146.2300  138.3350  146.9590 O   0  0  0  0  0  0  0  0  0  0  0  0
  146.8030  139.3150  149.0800 C   0  0  0  0  0  2  0  0  0  0  0  0
  146.0190  140.5050  149.6160 C   0  0  0  0  0  2  0  0  0  0  0  0
  147.8550  140.5190  152.9630 C   0  0  0  0  0  0  0  0  0  0  0  0
  147.4580  140.1720  151.6670 C   0  0  0  0  0  3  0  0  0  0  0  0
  146.4550  140.8970  151.0040 C   0  0  0  0  0  0  0  0  0  0  0  0
  145.8610  141.9910  151.6430 C   0  0  0  0  0  3  0  0  0  0  0  0
  146.2440  142.3450  152.9360 C   0  0  0  0  0  3  0  0  0  0  0  0
  147.2340  141.6090  153.5880 C   0  0  0  0  0  0  0  0  0  0  0  0
  148.5350  138.5340  154.0950 C   0  0  0  0  0  1  0  0  0  0  0  0
  148.8160  139.8660  153.6910 O   0  0  0  0  0  0  0  0  0  0  0  0
  147.6040  141.9540  154.8610 O   0  0  0  0  0  0  0  0  0  0  0  0
  147.7510  141.2860  155.5030 H   0  0  0  0  0  0  0  0  0  0  0  0
  144.7120  137.8460  148.7590 C   0  0  0  0  0  2  0  0  0  0  0  0
  145.0690  136.9070  149.9060 C   0  0  0  0  0  2  0  0  0  0  0  0
  143.9510  136.8670  150.9460 C   0  0  0  0  0  2  0  0  0  0  0  0
  143.3330  138.2510  151.1440 C   0  0  0  0  0  2  0  0  0  0  0  0
  143.4010  138.6910  152.5840 C   0  0  0  0  0  0  0  0  0  0  0  0
  144.6380  138.7620  153.2460 C   0  0  0  0  0  3  0  0  0  0  0  0
  144.7140  139.1740  154.5800 C   0  0  0  0  0  3  0  0  0  0  0  0
  143.5450  139.5080  155.2520 C   0  0  0  0  0  0  0  0  0  0  0  0
  142.3140  139.4250  154.6060 C   0  0  0  0  0  0  0  0  0  0  0  0
  142.2300  139.0170  153.2830 C   0  0  0  0  0  3  0  0  0  0  0  0
  143.5550  139.9260  156.5540 O   0  0  0  0  0  0  0  0  0  0  0  0
  143.0870  140.6990  156.8020 H   0  0  0  0  0  0  0  0  0  0  0  0
  141.1700  139.7510  155.2780 O   0  0  0  0  0  0  0  0  0  0  0  0
  140.3590  139.8230  154.8150 H   0  0  0  0  0  0  0  0  0  0  0  0
  1 15  1  0  0  0  0
  1  3  1  0  0  0  0
  2  1  2  0  0  0  0
  3  4  1  0  0  0  0
  4  7  1  0  0  0  0
  5 10  1  0  0  0  0
  5 12  1  0  0  0  0
  6  5  2  0  0  0  0
  7  8  2  0  0  0  0
  7  6  1  0  0  0  0
  8  9  1  0  0  0  0
  9 10  2  0  0  0  0
 10 13  1  0  0  0  0
 12 11  1  0  0  0  0
 13 14  1  0  0  0  0
 15 16  1  0  0  0  0
 16 17  1  0  0  0  0
 17 18  1  0  0  0  0
 18 19  1  0  0  0  0
 19 20  2  0  0  0  0
 19 24  1  0  0  0  0
 20 21  1  0  0  0  0
 21 22  2  0  0  0  0
 22 25  1  0  0  0  0
 23 22  1  0  0  0  0
 23 27  1  0  0  0  0
 24 23  2  0  0  0  0
 25 26  1  0  0  0  0
 28 27  1  0  0  0  0
M  END
>  <MODEL>
6

>  <REMARK>
 VINA RESULT:    -6.098      1.553      4.508
 INTER + INTRA:         -12.239
 INTER:                  -9.779
 INTRA:                  -2.460
 UNBOUND:                -2.399
  Name = CHEMBL5281015
  13 active torsions:
  status: ('A' for Active; 'I' for Inactive)
    1  A    between atoms: C_1  and  O_2
    2  A    between atoms: O_2  and  C_3
    3  A    between atoms: C_5  and  C_6
    4  A    between atoms: C_6  and  C_7
    5  A    between atoms: C_7  and  C_8
    6  A    between atoms: C_8  and  C_10
    7  A    between atoms: C_10  and  C_11
    8  A    between atoms: C_11  and  C_12
    9  A    between atoms: C_12  and  C_13
   10  A    between atoms: C_13  and  C_14
   11  A    between atoms: C_17  and  O_18
   12  A    between atoms: C_19  and  O_20
   13  A    between atoms: C_24  and  O_25
                            x       y       z     vdW  Elec       q    Type
                         _______ _______ _______ _____ _____    ______ ____

>  <TORSDO>
F 12

>  <SCORE>
-6.098

>  <RMSD_LB>
1.553

>  <RMSD_UB>
4.508

$$$$
CHEMBL5281015
 OpenBabel10172500063D

 28 29  0  0  0  0  0  0  0  0999 V2000
  146.2140  139.0370  147.1030 C   0  0  0  0  0  0  0  0  0  0  0  0
  145.5340  138.3980  147.9080 O   0  0  0  0  0  0  0  0  0  0  0  0
  147.4710  138.4580  146.4830 C   0  0  0  0  0  2  0  0  0  0  0  0
  147.9670  139.3430  145.3470 C   0  0  0  0  0  2  0  0  0  0  0  0
  150.9730  137.1140  144.5880 C   0  0  0  0  0  0  0  0  0  0  0  0
  149.8260  137.6360  145.1950 C   0  0  0  0  0  3  0  0  0  0  0  0
  149.1910  138.7750  144.6750 C   0  0  0  0  0  0  0  0  0  0  0  0
  149.7030  139.3810  143.5220 C   0  0  0  0  0  3  0  0  0  0  0  0
  150.8480  138.8740  142.9090 C   0  0  0  0  0  3  0  0  0  0  0  0
  151.4760  137.7490  143.4430 C   0  0  0  0  0  0  0  0  0  0  0  0
  151.8290  135.8680  146.4310 C   0  0  0  0  0  1  0  0  0  0  0  0
  151.6640  136.0160  145.0280 O   0  0  0  0  0  0  0  0  0  0  0  0
  152.6040  137.2560  142.8440 O   0  0  0  0  0  0  0  0  0  0  0  0
  153.2030  136.7260  143.3340 H   0  0  0  0  0  0  0  0  0  0  0  0
  145.8370  140.4400  146.6750 C   0  0  0  0  0  2  0  0  0  0  0  0
  146.5700  141.4970  147.4920 C   0  0  0  0  0  2  0  0  0  0  0  0
  146.3700  141.2660  148.9890 C   0  0  0  0  0  2  0  0  0  0  0  0
  146.5230  142.5690  149.7730 C   0  0  0  0  0  2  0  0  0  0  0  0
  147.0180  142.3220  151.1750 C   0  0  0  0  0  0  0  0  0  0  0  0
  148.3720  142.0290  151.4070 C   0  0  0  0  0  3  0  0  0  0  0  0
  148.8440  141.8030  152.7040 C   0  0  0  0  0  3  0  0  0  0  0  0
  147.9520  141.8640  153.7680 C   0  0  0  0  0  0  0  0  0  0  0  0
  146.6060  142.1390  153.5430 C   0  0  0  0  0  0  0  0  0  0  0  0
  146.1290  142.3650  152.2600 C   0  0  0  0  0  3  0  0  0  0  0  0
  148.3540  141.6610  155.0600 O   0  0  0  0  0  0  0  0  0  0  0  0
  148.9860  142.2330  155.4490 H   0  0  0  0  0  0  0  0  0  0  0  0
  145.7370  142.1920  154.5960 O   0  0  0  0  0  0  0  0  0  0  0  0
  144.8490  142.4540  154.4580 H   0  0  0  0  0  0  0  0  0  0  0  0
  1  2  2  0  0  0  0
  3  1  1  0  0  0  0
  4  3  1  0  0  0  0
  5 12  1  0  0  0  0
  5  6  1  0  0  0  0
  7  6  2  0  0  0  0
  7  4  1  0  0  0  0
  8  7  1  0  0  0  0
  9 10  1  0  0  0  0
  9  8  2  0  0  0  0
 10  5  2  0  0  0  0
 12 11  1  0  0  0  0
 13 14  1  0  0  0  0
 13 10  1  0  0  0  0
 15  1  1  0  0  0  0
 15 16  1  0  0  0  0
 16 17  1  0  0  0  0
 17 18  1  0  0  0  0
 18 19  1  0  0  0  0
 19 20  2  0  0  0  0
 19 24  1  0  0  0  0
 20 21  1  0  0  0  0
 21 22  2  0  0  0  0
 22 25  1  0  0  0  0
 23 22  1  0  0  0  0
 23 27  1  0  0  0  0
 24 23  2  0  0  0  0
 25 26  1  0  0  0  0
 28 27  1  0  0  0  0
M  END
>  <MODEL>
7

>  <REMARK>
 VINA RESULT:    -6.018      4.149      7.163
 INTER + INTRA:         -12.111
 INTER:                 -11.607
 INTRA:                  -0.503
 UNBOUND:                -2.399
  Name = CHEMBL5281015
  13 active torsions:
  status: ('A' for Active; 'I' for Inactive)
    1  A    between atoms: C_1  and  O_2
    2  A    between atoms: O_2  and  C_3
    3  A    between atoms: C_5  and  C_6
    4  A    between atoms: C_6  and  C_7
    5  A    between atoms: C_7  and  C_8
    6  A    between atoms: C_8  and  C_10
    7  A    between atoms: C_10  and  C_11
    8  A    between atoms: C_11  and  C_12
    9  A    between atoms: C_12  and  C_13
   10  A    between atoms: C_13  and  C_14
   11  A    between atoms: C_17  and  O_18
   12  A    between atoms: C_19  and  O_20
   13  A    between atoms: C_24  and  O_25
                            x       y       z     vdW  Elec       q    Type
                         _______ _______ _______ _____ _____    ______ ____

>  <TORSDO>
F 12

>  <SCORE>
-6.018

>  <RMSD_LB>
4.149

>  <RMSD_UB>
7.163

$$$$
CHEMBL5281015
 OpenBabel10172500063D

 28 29  0  0  0  0  0  0  0  0999 V2000
  140.5610  138.3160  149.0140 C   0  0  0  0  0  0  0  0  0  0  0  0
  140.4830  139.5440  148.9570 O   0  0  0  0  0  0  0  0  0  0  0  0
  141.8310  137.6160  149.4580 C   0  0  0  0  0  2  0  0  0  0  0  0
  141.5840  136.8030  150.7230 C   0  0  0  0  0  2  0  0  0  0  0  0
  140.4500  138.8070  153.7680 C   0  0  0  0  0  0  0  0  0  0  0  0
  140.4280  138.0010  152.6250 C   0  0  0  0  0  3  0  0  0  0  0  0
  141.6180  137.6550  151.9650 C   0  0  0  0  0  0  0  0  0  0  0  0
  142.8420  138.1080  152.4720 C   0  0  0  0  0  3  0  0  0  0  0  0
  142.8780  138.9140  153.6080 C   0  0  0  0  0  3  0  0  0  0  0  0
  141.6870  139.2610  154.2470 C   0  0  0  0  0  0  0  0  0  0  0  0
  138.6960  138.2270  155.2740 C   0  0  0  0  0  1  0  0  0  0  0  0
  139.3430  139.2030  154.4710 O   0  0  0  0  0  0  0  0  0  0  0  0
  141.7240  140.0600  155.3590 O   0  0  0  0  0  0  0  0  0  0  0  0
  140.9620  140.5440  155.6140 H   0  0  0  0  0  0  0  0  0  0  0  0
  139.3930  137.4230  148.6530 C   0  0  0  0  0  2  0  0  0  0  0  0
  138.0640  138.1630  148.7500 C   0  0  0  0  0  2  0  0  0  0  0  0
  137.0270  137.3270  149.4980 C   0  0  0  0  0  2  0  0  0  0  0  0
  137.6950  136.4060  150.5190 C   0  0  0  0  0  2  0  0  0  0  0  0
  136.6870  135.7780  151.4470 C   0  0  0  0  0  0  0  0  0  0  0  0
  136.0140  134.6040  151.0720 C   0  0  0  0  0  3  0  0  0  0  0  0
  135.0810  134.0090  151.9270 C   0  0  0  0  0  3  0  0  0  0  0  0
  134.8190  134.6000  153.1570 C   0  0  0  0  0  0  0  0  0  0  0  0
  135.4710  135.7720  153.5280 C   0  0  0  0  0  0  0  0  0  0  0  0
  136.3990  136.3690  152.6860 C   0  0  0  0  0  3  0  0  0  0  0  0
  133.9230  134.0610  154.0410 O   0  0  0  0  0  0  0  0  0  0  0  0
  133.1880  134.5650  154.3280 H   0  0  0  0  0  0  0  0  0  0  0  0
  135.2020  136.3470  154.7380 O   0  0  0  0  0  0  0  0  0  0  0  0
  135.8500  136.8760  155.1600 H   0  0  0  0  0  0  0  0  0  0  0  0
  1  3  1  0  0  0  0
  2  1  2  0  0  0  0
  3  4  1  0  0  0  0
  4  7  1  0  0  0  0
  5 10  1  0  0  0  0
  5 12  1  0  0  0  0
  6  5  2  0  0  0  0
  7  8  2  0  0  0  0
  7  6  1  0  0  0  0
  8  9  1  0  0  0  0
  9 10  2  0  0  0  0
 10 13  1  0  0  0  0
 12 11  1  0  0  0  0
 13 14  1  0  0  0  0
 15 16  1  0  0  0  0
 15  1  1  0  0  0  0
 16 17  1  0  0  0  0
 17 18  1  0  0  0  0
 18 19  1  0  0  0  0
 19 24  1  0  0  0  0
 20 19  2  0  0  0  0
 20 21  1  0  0  0  0
 21 22  2  0  0  0  0
 22 23  1  0  0  0  0
 22 25  1  0  0  0  0
 23 27  1  0  0  0  0
 24 23  2  0  0  0  0
 25 26  1  0  0  0  0
 27 28  1  0  0  0  0
M  END
>  <MODEL>
8

>  <REMARK>
 VINA RESULT:    -5.638      6.269      9.223
 INTER + INTRA:         -11.497
 INTER:                  -9.900
 INTRA:                  -1.598
 UNBOUND:                -2.399
  Name = CHEMBL5281015
  13 active torsions:
  status: ('A' for Active; 'I' for Inactive)
    1  A    between atoms: C_1  and  O_2
    2  A    between atoms: O_2  and  C_3
    3  A    between atoms: C_5  and  C_6
    4  A    between atoms: C_6  and  C_7
    5  A    between atoms: C_7  and  C_8
    6  A    between atoms: C_8  and  C_10
    7  A    between atoms: C_10  and  C_11
    8  A    between atoms: C_11  and  C_12
    9  A    between atoms: C_12  and  C_13
   10  A    between atoms: C_13  and  C_14
   11  A    between atoms: C_17  and  O_18
   12  A    between atoms: C_19  and  O_20
   13  A    between atoms: C_24  and  O_25
                            x       y       z     vdW  Elec       q    Type
                         _______ _______ _______ _____ _____    ______ ____

>  <TORSDO>
F 12

>  <SCORE>
-5.638

>  <RMSD_LB>
6.269

>  <RMSD_UB>
9.223

$$$$
CHEMBL5281015
 OpenBabel10172500063D

 28 29  0  0  0  0  0  0  0  0999 V2000
  147.2130  139.1890  154.3920 C   0  0  0  0  0  0  0  0  0  0  0  0
  147.6260  138.6160  155.4020 O   0  0  0  0  0  0  0  0  0  0  0  0
  146.5970  138.4250  153.2360 C   0  0  0  0  0  2  0  0  0  0  0  0
  147.6700  137.9880  152.2470 C   0  0  0  0  0  2  0  0  0  0  0  0
  145.3140  136.4820  149.6470 C   0  0  0  0  0  0  0  0  0  0  0  0
  145.8390  137.3210  150.6360 C   0  0  0  0  0  3  0  0  0  0  0  0
  147.1190  137.0930  151.1670 C   0  0  0  0  0  0  0  0  0  0  0  0
  147.8840  136.0250  150.6830 C   0  0  0  0  0  3  0  0  0  0  0  0
  147.3720  135.1800  149.7000 C   0  0  0  0  0  3  0  0  0  0  0  0
  146.0940  135.4100  149.1900 C   0  0  0  0  0  0  0  0  0  0  0  0
  142.9490  136.5240  149.9370 C   0  0  0  0  0  1  0  0  0  0  0  0
  144.0760  136.6190  149.0780 O   0  0  0  0  0  0  0  0  0  0  0  0
  145.5890  134.5740  148.2300 O   0  0  0  0  0  0  0  0  0  0  0  0
  145.6330  134.8180  147.3260 H   0  0  0  0  0  0  0  0  0  0  0  0
  147.2850  140.6940  154.2410 C   0  0  0  0  0  2  0  0  0  0  0  0
  145.9860  141.2700  153.6900 C   0  0  0  0  0  2  0  0  0  0  0  0
  146.2660  142.3250  152.6210 C   0  0  0  0  0  2  0  0  0  0  0  0
  147.0450  141.7280  151.4490 C   0  0  0  0  0  2  0  0  0  0  0  0
  146.1270  141.1000  150.4310 C   0  0  0  0  0  0  0  0  0  0  0  0
  146.6390  140.6300  149.2110 C   0  0  0  0  0  3  0  0  0  0  0  0
  145.7980  140.0410  148.2610 C   0  0  0  0  0  3  0  0  0  0  0  0
  144.4400  139.9330  148.5350 C   0  0  0  0  0  0  0  0  0  0  0  0
  143.9240  140.4110  149.7360 C   0  0  0  0  0  0  0  0  0  0  0  0
  144.7510  140.9960  150.6840 C   0  0  0  0  0  3  0  0  0  0  0  0
  143.5680  139.3590  147.6500 O   0  0  0  0  0  0  0  0  0  0  0  0
  143.8390  138.6260  147.1340 H   0  0  0  0  0  0  0  0  0  0  0  0
  142.5870  140.3030  149.9930 O   0  0  0  0  0  0  0  0  0  0  0  0
  142.2700  139.6180  150.5480 H   0  0  0  0  0  0  0  0  0  0  0  0
  1  2  2  0  0  0  0
  3  1  1  0  0  0  0
  4  3  1  0  0  0  0
  5  6  1  0  0  0  0
  6  7  2  0  0  0  0
  7  4  1  0  0  0  0
  8  7  1  0  0  0  0
  9  8  2  0  0  0  0
 10  5  2  0  0  0  0
 10  9  1  0  0  0  0
 12  5  1  0  0  0  0
 12 11  1  0  0  0  0
 13 10  1  0  0  0  0
 14 13  1  0  0  0  0
 15  1  1  0  0  0  0
 16 15  1  0  0  0  0
 17 16  1  0  0  0  0
 18 17  1  0  0  0  0
 19 24  1  0  0  0  0
 19 18  1  0  0  0  0
 20 19  2  0  0  0  0
 21 22  2  0  0  0  0
 21 20  1  0  0  0  0
 22 23  1  0  0  0  0
 23 27  1  0  0  0  0
 23 24  2  0  0  0  0
 25 22  1  0  0  0  0
 26 25  1  0  0  0  0
 27 28  1  0  0  0  0
M  END
>  <MODEL>
9

>  <REMARK>
 VINA RESULT:    -5.471      2.091      5.072
 INTER + INTRA:         -11.228
 INTER:                  -8.829
 INTRA:                  -2.399
 UNBOUND:                -2.399
  Name = CHEMBL5281015
  13 active torsions:
  status: ('A' for Active; 'I' for Inactive)
    1  A    between atoms: C_1  and  O_2
    2  A    between atoms: O_2  and  C_3
    3  A    between atoms: C_5  and  C_6
    4  A    between atoms: C_6  and  C_7
    5  A    between atoms: C_7  and  C_8
    6  A    between atoms: C_8  and  C_10
    7  A    between atoms: C_10  and  C_11
    8  A    between atoms: C_11  and  C_12
    9  A    between atoms: C_12  and  C_13
   10  A    between atoms: C_13  and  C_14
   11  A    between atoms: C_17  and  O_18
   12  A    between atoms: C_19  and  O_20
   13  A    between atoms: C_24  and  O_25
                            x       y       z     vdW  Elec       q    Type
                         _______ _______ _______ _____ _____    ______ ____

>  <TORSDO>
F 12

>  <SCORE>
-5.471

>  <RMSD_LB>
2.091

>  <RMSD_UB>
5.072

$$$$
