CHEMBL4227443
 OpenBabel10172500153D

 24 24  0  0  0  0  0  0  0  0999 V2000
  144.5240  139.7890  149.8050 C   0  0  0  0  0  0  0  0  0  0  0  0
  145.4480  139.0200  149.5590 O   0  0  0  0  0  0  0  0  0  0  0  0
  144.6860  141.1440  149.9700 N   0  0  0  0  0  0  0  0  0  0  0  0
  143.9000  141.6990  150.1740 H   0  0  0  0  0  0  0  0  0  0  0  0
  143.1010  139.2950  149.9660 C   0  0  0  0  0  2  0  0  0  0  0  0
  143.0650  137.8130  150.3150 C   0  0  0  0  0  2  0  0  0  0  0  0
  141.9170  137.4720  151.2650 C   0  0  0  0  0  2  0  0  0  0  0  0
  142.3270  137.7460  152.7130 C   0  0  0  0  0  2  0  0  0  0  0  0
  144.5210  138.2190  153.8370 C   0  0  0  0  0  3  0  0  0  0  0  0
  143.8000  137.5500  152.9220 C   0  0  0  0  0  3  0  0  0  0  0  0
  146.7880  138.3420  152.8050 C   0  0  0  0  0  1  0  0  0  0  0  0
  145.9960  137.9990  154.0650 C   0  0  0  0  0  3  0  0  0  0  0  0
  146.4810  138.8390  155.2460 C   0  0  0  0  0  1  0  0  0  0  0  0
  145.9810  141.7750  149.8520 C   0  0  0  0  0  2  0  0  0  0  0  0
  146.6880  141.8430  151.1820 C   0  0  0  0  0  0  0  0  0  0  0  0
  148.0760  141.6260  151.2630 C   0  0  0  0  0  3  0  0  0  0  0  0
  148.7370  141.6490  152.4960 C   0  0  0  0  0  3  0  0  0  0  0  0
  148.0080  141.9050  153.6500 C   0  0  0  0  0  0  0  0  0  0  0  0
  146.6380  142.1410  153.5760 C   0  0  0  0  0  0  0  0  0  0  0  0
  145.9720  142.1160  152.3580 C   0  0  0  0  0  3  0  0  0  0  0  0
  148.5940  141.9340  154.8850 O   0  0  0  0  0  0  0  0  0  0  0  0
  149.4950  141.6980  154.9820 H   0  0  0  0  0  0  0  0  0  0  0  0
  145.9280  142.3920  154.7160 O   0  0  0  0  0  0  0  0  0  0  0  0
  145.0080  142.2150  154.7430 H   0  0  0  0  0  0  0  0  0  0  0  0
  1  5  1  0  0  0  0
  1  3  1  0  0  0  0
  2  1  2  0  0  0  0
  3  4  1  0  0  0  0
  5  6  1  0  0  0  0
  6  7  1  0  0  0  0
  7  8  1  0  0  0  0
  8 10  1  0  0  0  0
  9 12  1  0  0  0  0
 10  9  2  0  0  0  0
 11 12  1  0  0  0  0
 12 13  1  0  0  0  0
 14  3  1  0  0  0  0
 14 15  1  0  0  0  0
 15 16  2  0  0  0  0
 15 20  1  0  0  0  0
 16 17  1  0  0  0  0
 17 18  2  0  0  0  0
 18 21  1  0  0  0  0
 19 18  1  0  0  0  0
 19 23  1  0  0  0  0
 20 19  2  0  0  0  0
 21 22  1  0  0  0  0
 23 24  1  0  0  0  0
M  END
>  <MODEL>
1

>  <REMARK>
 VINA RESULT:    -7.303      0.000      0.000
 INTER + INTRA:         -11.676
 INTER:                 -10.005
 INTRA:                  -1.671
 UNBOUND:                -0.530
  Name = CHEMBL4227443
  12 active torsions:
  status: ('A' for Active; 'I' for Inactive)
    1  A    between atoms: C_1  and  C_2
    2  A    between atoms: C_2  and  C_3
    3  A    between atoms: C_2  and  C_4
    4  A    between atoms: C_5  and  C_6
    5  A    between atoms: C_6  and  C_7
    6  A    between atoms: C_7  and  C_8
    7  A    between atoms: C_8  and  C_9
    8  A    between atoms: C_9  and  C_10
    9  A    between atoms: N_12  and  C_13
   10  A    between atoms: C_13  and  C_14
   11  A    between atoms: C_17  and  O_18
   12  A    between atoms: C_19  and  O_20
                            x       y       z     vdW  Elec       q    Type
                         _______ _______ _______ _____ _____    ______ ____

>  <TORSDO>
F 10

>  <SCORE>
-7.303

>  <RMSD_LB>
0.000

>  <RMSD_UB>
0.000

$$$$
CHEMBL4227443
 OpenBabel10172500153D

 24 24  0  0  0  0  0  0  0  0999 V2000
  146.3170  141.1450  147.4590 C   0  0  0  0  0  0  0  0  0  0  0  0
  146.7520  142.0350  146.7340 O   0  0  0  0  0  0  0  0  0  0  0  0
  146.1250  141.2940  148.8120 N   0  0  0  0  0  0  0  0  0  0  0  0
  145.7810  140.5340  149.3340 H   0  0  0  0  0  0  0  0  0  0  0  0
  145.9630  139.7770  146.9140 C   0  0  0  0  0  2  0  0  0  0  0  0
  147.0230  138.7450  147.2800 C   0  0  0  0  0  2  0  0  0  0  0  0
  146.4560  137.6200  148.1470 C   0  0  0  0  0  2  0  0  0  0  0  0
  146.9180  137.7820  149.5960 C   0  0  0  0  0  2  0  0  0  0  0  0
  145.6160  138.7740  151.4980 C   0  0  0  0  0  3  0  0  0  0  0  0
  145.7590  137.8350  150.5480 C   0  0  0  0  0  3  0  0  0  0  0  0
  143.2890  139.6240  151.7940 C   0  0  0  0  0  1  0  0  0  0  0  0
  144.4350  138.8430  152.4350 C   0  0  0  0  0  3  0  0  0  0  0  0
  143.9760  137.4350  152.8140 C   0  0  0  0  0  1  0  0  0  0  0  0
  146.4160  142.5360  149.4900 C   0  0  0  0  0  2  0  0  0  0  0  0
  146.8020  142.3050  150.9300 C   0  0  0  0  0  0  0  0  0  0  0  0
  145.8300  142.3660  151.9460 C   0  0  0  0  0  3  0  0  0  0  0  0
  146.1820  142.1900  153.2890 C   0  0  0  0  0  3  0  0  0  0  0  0
  147.5080  141.9380  153.6130 C   0  0  0  0  0  0  0  0  0  0  0  0
  148.4720  141.8550  152.6120 C   0  0  0  0  0  0  0  0  0  0  0  0
  148.1330  142.0330  151.2770 C   0  0  0  0  0  3  0  0  0  0  0  0
  147.9180  141.7640  154.9060 O   0  0  0  0  0  0  0  0  0  0  0  0
  147.8710  142.4770  155.5130 H   0  0  0  0  0  0  0  0  0  0  0  0
  149.7750  141.6060  152.9390 O   0  0  0  0  0  0  0  0  0  0  0  0
  149.9880  140.8810  153.4910 H   0  0  0  0  0  0  0  0  0  0  0  0
  1  3  1  0  0  0  0
  2  1  2  0  0  0  0
  3  4  1  0  0  0  0
  3 14  1  0  0  0  0
  5  6  1  0  0  0  0
  5  1  1  0  0  0  0
  6  7  1  0  0  0  0
  7  8  1  0  0  0  0
  8 10  1  0  0  0  0
  9 12  1  0  0  0  0
 10  9  2  0  0  0  0
 11 12  1  0  0  0  0
 12 13  1  0  0  0  0
 14 15  1  0  0  0  0
 15 20  2  0  0  0  0
 15 16  1  0  0  0  0
 16 17  2  0  0  0  0
 17 18  1  0  0  0  0
 18 21  1  0  0  0  0
 19 23  1  0  0  0  0
 19 18  2  0  0  0  0
 20 19  1  0  0  0  0
 21 22  1  0  0  0  0
 23 24  1  0  0  0  0
M  END
>  <MODEL>
2

>  <REMARK>
 VINA RESULT:    -7.072      2.145      3.331
 INTER + INTRA:         -11.323
 INTER:                  -9.748
 INTRA:                  -1.574
 UNBOUND:                -0.530
  Name = CHEMBL4227443
  12 active torsions:
  status: ('A' for Active; 'I' for Inactive)
    1  A    between atoms: C_1  and  C_2
    2  A    between atoms: C_2  and  C_3
    3  A    between atoms: C_2  and  C_4
    4  A    between atoms: C_5  and  C_6
    5  A    between atoms: C_6  and  C_7
    6  A    between atoms: C_7  and  C_8
    7  A    between atoms: C_8  and  C_9
    8  A    between atoms: C_9  and  C_10
    9  A    between atoms: N_12  and  C_13
   10  A    between atoms: C_13  and  C_14
   11  A    between atoms: C_17  and  O_18
   12  A    between atoms: C_19  and  O_20
                            x       y       z     vdW  Elec       q    Type
                         _______ _______ _______ _____ _____    ______ ____

>  <TORSDO>
F 10

>  <SCORE>
-7.072

>  <RMSD_LB>
2.145

>  <RMSD_UB>
3.331

$$$$
CHEMBL4227443
 OpenBabel10172500153D

 24 24  0  0  0  0  0  0  0  0999 V2000
  145.6130  140.1600  148.7350 C   0  0  0  0  0  0  0  0  0  0  0  0
  144.4970  140.3160  149.2200 O   0  0  0  0  0  0  0  0  0  0  0  0
  146.6260  141.0830  148.8460 N   0  0  0  0  0  0  0  0  0  0  0  0
  147.4940  140.8940  148.4230 H   0  0  0  0  0  0  0  0  0  0  0  0
  145.9690  138.9180  147.9440 C   0  0  0  0  0  2  0  0  0  0  0  0
  146.7200  137.9100  148.8050 C   0  0  0  0  0  2  0  0  0  0  0  0
  145.7730  136.9740  149.5560 C   0  0  0  0  0  2  0  0  0  0  0  0
  146.5660  136.0400  150.4720 C   0  0  0  0  0  2  0  0  0  0  0  0
  146.6380  136.8840  152.8340 C   0  0  0  0  0  3  0  0  0  0  0  0
  147.1940  136.7810  151.6150 C   0  0  0  0  0  3  0  0  0  0  0  0
  148.5760  138.2850  153.5410 C   0  0  0  0  0  1  0  0  0  0  0  0
  147.2850  137.6050  153.9910 C   0  0  0  0  0  3  0  0  0  0  0  0
  146.3180  138.6300  154.5830 C   0  0  0  0  0  1  0  0  0  0  0  0
  146.4500  142.3230  149.5660 C   0  0  0  0  0  2  0  0  0  0  0  0
  146.8520  142.1860  151.0130 C   0  0  0  0  0  0  0  0  0  0  0  0
  145.8870  142.2870  152.0330 C   0  0  0  0  0  3  0  0  0  0  0  0
  146.2530  142.1990  153.3800 C   0  0  0  0  0  3  0  0  0  0  0  0
  147.5880  141.9940  153.7070 C   0  0  0  0  0  0  0  0  0  0  0  0
  148.5450  141.8710  152.7030 C   0  0  0  0  0  0  0  0  0  0  0  0
  148.1920  141.9620  151.3630 C   0  0  0  0  0  3  0  0  0  0  0  0
  148.0110  141.9060  155.0040 O   0  0  0  0  0  0  0  0  0  0  0  0
  147.8350  142.6040  155.6030 H   0  0  0  0  0  0  0  0  0  0  0  0
  149.8550  141.6690  153.0320 O   0  0  0  0  0  0  0  0  0  0  0  0
  150.0830  141.0120  153.6600 H   0  0  0  0  0  0  0  0  0  0  0  0
  1  3  1  0  0  0  0
  1  2  2  0  0  0  0
  3 14  1  0  0  0  0
  4  3  1  0  0  0  0
  5  1  1  0  0  0  0
  5  6  1  0  0  0  0
  6  7  1  0  0  0  0
  7  8  1  0  0  0  0
  8 10  1  0  0  0  0
  9 12  1  0  0  0  0
 10  9  2  0  0  0  0
 11 12  1  0  0  0  0
 12 13  1  0  0  0  0
 14 15  1  0  0  0  0
 15 20  2  0  0  0  0
 15 16  1  0  0  0  0
 16 17  2  0  0  0  0
 17 18  1  0  0  0  0
 18 21  1  0  0  0  0
 19 23  1  0  0  0  0
 19 18  2  0  0  0  0
 20 19  1  0  0  0  0
 21 22  1  0  0  0  0
 23 24  1  0  0  0  0
M  END
>  <MODEL>
3

>  <REMARK>
 VINA RESULT:    -6.826      2.038      2.699
 INTER + INTRA:         -10.947
 INTER:                  -9.625
 INTRA:                  -1.322
 UNBOUND:                -0.530
  Name = CHEMBL4227443
  12 active torsions:
  status: ('A' for Active; 'I' for Inactive)
    1  A    between atoms: C_1  and  C_2
    2  A    between atoms: C_2  and  C_3
    3  A    between atoms: C_2  and  C_4
    4  A    between atoms: C_5  and  C_6
    5  A    between atoms: C_6  and  C_7
    6  A    between atoms: C_7  and  C_8
    7  A    between atoms: C_8  and  C_9
    8  A    between atoms: C_9  and  C_10
    9  A    between atoms: N_12  and  C_13
   10  A    between atoms: C_13  and  C_14
   11  A    between atoms: C_17  and  O_18
   12  A    between atoms: C_19  and  O_20
                            x       y       z     vdW  Elec       q    Type
                         _______ _______ _______ _____ _____    ______ ____

>  <TORSDO>
F 10

>  <SCORE>
-6.826

>  <RMSD_LB>
2.038

>  <RMSD_UB>
2.699

$$$$
CHEMBL4227443
 OpenBabel10172500153D

 24 24  0  0  0  0  0  0  0  0999 V2000
  145.0600  140.3220  149.0090 C   0  0  0  0  0  0  0  0  0  0  0  0
  145.9970  139.6840  148.5380 O   0  0  0  0  0  0  0  0  0  0  0  0
  145.2000  141.5580  149.5960 N   0  0  0  0  0  0  0  0  0  0  0  0
  144.4060  142.0080  149.9610 H   0  0  0  0  0  0  0  0  0  0  0  0
  143.6450  139.7820  148.9980 C   0  0  0  0  0  2  0  0  0  0  0  0
  143.4880  138.6200  149.9720 C   0  0  0  0  0  2  0  0  0  0  0  0
  143.4260  137.2720  149.2540 C   0  0  0  0  0  2  0  0  0  0  0  0
  143.9860  136.1670  150.1530 C   0  0  0  0  0  2  0  0  0  0  0  0
  145.9010  135.2960  148.7850 C   0  0  0  0  0  3  0  0  0  0  0  0
  145.4400  135.9140  149.8860 C   0  0  0  0  0  3  0  0  0  0  0  0
  148.1910  135.2710  149.7740 C   0  0  0  0  0  1  0  0  0  0  0  0
  147.3660  135.0690  148.5040 C   0  0  0  0  0  3  0  0  0  0  0  0
  147.5860  133.6650  147.9410 C   0  0  0  0  0  1  0  0  0  0  0  0
  146.4850  142.2140  149.6910 C   0  0  0  0  0  2  0  0  0  0  0  0
  147.0440  142.1360  151.0890 C   0  0  0  0  0  0  0  0  0  0  0  0
  148.4240  141.9460  151.2940 C   0  0  0  0  0  3  0  0  0  0  0  0
  148.9500  141.8360  152.5860 C   0  0  0  0  0  3  0  0  0  0  0  0
  148.0930  141.9310  153.6760 C   0  0  0  0  0  0  0  0  0  0  0  0
  146.7310  142.1410  153.4810 C   0  0  0  0  0  0  0  0  0  0  0  0
  146.1990  142.2480  152.2030 C   0  0  0  0  0  3  0  0  0  0  0  0
  148.5440  141.8250  154.9630 O   0  0  0  0  0  0  0  0  0  0  0  0
  148.9710  141.0410  155.2460 H   0  0  0  0  0  0  0  0  0  0  0  0
  145.8950  142.2340  154.5580 O   0  0  0  0  0  0  0  0  0  0  0  0
  145.3890  143.0110  154.6910 H   0  0  0  0  0  0  0  0  0  0  0  0
  1  3  1  0  0  0  0
  2  1  2  0  0  0  0
  3 14  1  0  0  0  0
  3  4  1  0  0  0  0
  5  1  1  0  0  0  0
  5  6  1  0  0  0  0
  7  6  1  0  0  0  0
  7  8  1  0  0  0  0
  9 10  2  0  0  0  0
 10  8  1  0  0  0  0
 12  9  1  0  0  0  0
 12 11  1  0  0  0  0
 13 12  1  0  0  0  0
 14 15  1  0  0  0  0
 15 16  2  0  0  0  0
 15 20  1  0  0  0  0
 16 17  1  0  0  0  0
 17 18  2  0  0  0  0
 18 21  1  0  0  0  0
 19 18  1  0  0  0  0
 19 23  1  0  0  0  0
 20 19  2  0  0  0  0
 21 22  1  0  0  0  0
 23 24  1  0  0  0  0
M  END
>  <MODEL>
4

>  <REMARK>
 VINA RESULT:    -6.569      2.500      3.231
 INTER + INTRA:         -10.555
 INTER:                  -9.731
 INTRA:                  -0.824
 UNBOUND:                -0.530
  Name = CHEMBL4227443
  12 active torsions:
  status: ('A' for Active; 'I' for Inactive)
    1  A    between atoms: C_1  and  C_2
    2  A    between atoms: C_2  and  C_3
    3  A    between atoms: C_2  and  C_4
    4  A    between atoms: C_5  and  C_6
    5  A    between atoms: C_6  and  C_7
    6  A    between atoms: C_7  and  C_8
    7  A    between atoms: C_8  and  C_9
    8  A    between atoms: C_9  and  C_10
    9  A    between atoms: N_12  and  C_13
   10  A    between atoms: C_13  and  C_14
   11  A    between atoms: C_17  and  O_18
   12  A    between atoms: C_19  and  O_20
                            x       y       z     vdW  Elec       q    Type
                         _______ _______ _______ _____ _____    ______ ____

>  <TORSDO>
F 10

>  <SCORE>
-6.569

>  <RMSD_LB>
2.500

>  <RMSD_UB>
3.231

$$$$
CHEMBL4227443
 OpenBabel10172500153D

 24 24  0  0  0  0  0  0  0  0999 V2000
  137.8960  138.4280  154.8460 C   0  0  0  0  0  0  0  0  0  0  0  0
  137.1140  139.2080  155.3820 O   0  0  0  0  0  0  0  0  0  0  0  0
  137.7120  137.0660  154.8190 N   0  0  0  0  0  0  0  0  0  0  0  0
  138.3850  136.5000  154.3790 H   0  0  0  0  0  0  0  0  0  0  0  0
  139.1620  138.9110  154.1700 C   0  0  0  0  0  2  0  0  0  0  0  0
  140.3960  138.5690  154.9950 C   0  0  0  0  0  2  0  0  0  0  0  0
  141.6920  138.9550  154.2820 C   0  0  0  0  0  2  0  0  0  0  0  0
  142.4870  137.7010  153.9110 C   0  0  0  0  0  2  0  0  0  0  0  0
  141.4700  137.3860  151.6390 C   0  0  0  0  0  3  0  0  0  0  0  0
  142.5530  137.5020  152.4250 C   0  0  0  0  0  3  0  0  0  0  0  0
  142.7170  136.3240  149.7580 C   0  0  0  0  0  1  0  0  0  0  0  0
  141.5370  137.2160  150.1410 C   0  0  0  0  0  3  0  0  0  0  0  0
  140.2290  136.6270  149.6160 C   0  0  0  0  0  1  0  0  0  0  0  0
  136.5560  136.4420  155.4220 C   0  0  0  0  0  2  0  0  0  0  0  0
  135.7690  135.6430  154.4140 C   0  0  0  0  0  0  0  0  0  0  0  0
  134.9390  134.5860  154.8350 C   0  0  0  0  0  3  0  0  0  0  0  0
  134.2330  133.8140  153.9060 C   0  0  0  0  0  3  0  0  0  0  0  0
  134.3450  134.1110  152.5540 C   0  0  0  0  0  0  0  0  0  0  0  0
  135.1470  135.1680  152.1320 C   0  0  0  0  0  0  0  0  0  0  0  0
  135.8550  135.9370  153.0450 C   0  0  0  0  0  3  0  0  0  0  0  0
  133.6870  133.3900  151.5970 O   0  0  0  0  0  0  0  0  0  0  0  0
  133.7360  133.6490  150.6980 H   0  0  0  0  0  0  0  0  0  0  0  0
  135.2520  135.4540  150.8000 O   0  0  0  0  0  0  0  0  0  0  0  0
  135.2740  136.3450  150.5140 H   0  0  0  0  0  0  0  0  0  0  0  0
  1  2  2  0  0  0  0
  3  1  1  0  0  0  0
  3 14  1  0  0  0  0
  4  3  1  0  0  0  0
  5  1  1  0  0  0  0
  5  6  1  0  0  0  0
  7  6  1  0  0  0  0
  8  7  1  0  0  0  0
  9 10  2  0  0  0  0
 10  8  1  0  0  0  0
 11 12  1  0  0  0  0
 12  9  1  0  0  0  0
 13 12  1  0  0  0  0
 15 16  1  0  0  0  0
 15 14  1  0  0  0  0
 17 16  2  0  0  0  0
 18 17  1  0  0  0  0
 19 18  2  0  0  0  0
 19 20  1  0  0  0  0
 20 15  2  0  0  0  0
 21 18  1  0  0  0  0
 22 21  1  0  0  0  0
 23 19  1  0  0  0  0
 24 23  1  0  0  0  0
M  END
>  <MODEL>
5

>  <REMARK>
 VINA RESULT:    -6.475      6.689     10.642
 INTER + INTRA:         -10.412
 INTER:                  -9.589
 INTRA:                  -0.822
 UNBOUND:                -0.530
  Name = CHEMBL4227443
  12 active torsions:
  status: ('A' for Active; 'I' for Inactive)
    1  A    between atoms: C_1  and  C_2
    2  A    between atoms: C_2  and  C_3
    3  A    between atoms: C_2  and  C_4
    4  A    between atoms: C_5  and  C_6
    5  A    between atoms: C_6  and  C_7
    6  A    between atoms: C_7  and  C_8
    7  A    between atoms: C_8  and  C_9
    8  A    between atoms: C_9  and  C_10
    9  A    between atoms: N_12  and  C_13
   10  A    between atoms: C_13  and  C_14
   11  A    between atoms: C_17  and  O_18
   12  A    between atoms: C_19  and  O_20
                            x       y       z     vdW  Elec       q    Type
                         _______ _______ _______ _____ _____    ______ ____

>  <TORSDO>
F 10

>  <SCORE>
-6.475

>  <RMSD_LB>
6.689

>  <RMSD_UB>
10.642

$$$$
CHEMBL4227443
 OpenBabel10172500153D

 24 24  0  0  0  0  0  0  0  0999 V2000
  134.7050  135.3990  145.3890 C   0  0  0  0  0  0  0  0  0  0  0  0
  135.9100  135.2660  145.5770 O   0  0  0  0  0  0  0  0  0  0  0  0
  133.7530  134.5840  145.9550 N   0  0  0  0  0  0  0  0  0  0  0  0
  132.8030  134.7440  145.7520 H   0  0  0  0  0  0  0  0  0  0  0  0
  134.1560  136.4840  144.4850 C   0  0  0  0  0  2  0  0  0  0  0  0
  133.2600  137.4460  145.2560 C   0  0  0  0  0  2  0  0  0  0  0  0
  133.9070  138.8200  145.4320 C   0  0  0  0  0  2  0  0  0  0  0  0
  133.0460  139.8990  144.7710 C   0  0  0  0  0  2  0  0  0  0  0  0
  133.4600  139.6120  142.3130 C   0  0  0  0  0  3  0  0  0  0  0  0
  132.6450  139.5160  143.3770 C   0  0  0  0  0  3  0  0  0  0  0  0
  133.9480  138.0510  140.4300 C   0  0  0  0  0  1  0  0  0  0  0  0
  133.0650  139.1990  140.9170 C   0  0  0  0  0  3  0  0  0  0  0  0
  131.5920  138.7930  140.8810 C   0  0  0  0  0  1  0  0  0  0  0  0
  134.1090  133.4990  146.8390 C   0  0  0  0  0  2  0  0  0  0  0  0
  133.8050  133.8330  148.2780 C   0  0  0  0  0  0  0  0  0  0  0  0
  134.0730  132.9010  149.2980 C   0  0  0  0  0  3  0  0  0  0  0  0
  133.7600  133.1850  150.6320 C   0  0  0  0  0  3  0  0  0  0  0  0
  133.1920  134.4130  150.9470 C   0  0  0  0  0  0  0  0  0  0  0  0
  132.9430  135.3480  149.9470 C   0  0  0  0  0  0  0  0  0  0  0  0
  133.2460  135.0740  148.6190 C   0  0  0  0  0  3  0  0  0  0  0  0
  132.8570  134.7480  152.2300 O   0  0  0  0  0  0  0  0  0  0  0  0
  132.4630  134.1120  152.7930 H   0  0  0  0  0  0  0  0  0  0  0  0
  132.3840  136.5540  150.2650 O   0  0  0  0  0  0  0  0  0  0  0  0
  132.4430  137.2700  149.6640 H   0  0  0  0  0  0  0  0  0  0  0  0
  1  2  2  0  0  0  0
  1  3  1  0  0  0  0
  3 14  1  0  0  0  0
  4  3  1  0  0  0  0
  5  6  1  0  0  0  0
  5  1  1  0  0  0  0
  6  7  1  0  0  0  0
  8  7  1  0  0  0  0
  9 10  2  0  0  0  0
 10  8  1  0  0  0  0
 11 12  1  0  0  0  0
 12  9  1  0  0  0  0
 13 12  1  0  0  0  0
 14 15  1  0  0  0  0
 15 20  2  0  0  0  0
 15 16  1  0  0  0  0
 16 17  2  0  0  0  0
 17 18  1  0  0  0  0
 18 21  1  0  0  0  0
 19 23  1  0  0  0  0
 19 18  2  0  0  0  0
 20 19  1  0  0  0  0
 21 22  1  0  0  0  0
 24 23  1  0  0  0  0
M  END
>  <MODEL>
6

>  <REMARK>
 VINA RESULT:    -6.325     13.529     15.157
 INTER + INTRA:         -10.183
 INTER:                  -9.257
 INTRA:                  -0.926
 UNBOUND:                -0.530
  Name = CHEMBL4227443
  12 active torsions:
  status: ('A' for Active; 'I' for Inactive)
    1  A    between atoms: C_1  and  C_2
    2  A    between atoms: C_2  and  C_3
    3  A    between atoms: C_2  and  C_4
    4  A    between atoms: C_5  and  C_6
    5  A    between atoms: C_6  and  C_7
    6  A    between atoms: C_7  and  C_8
    7  A    between atoms: C_8  and  C_9
    8  A    between atoms: C_9  and  C_10
    9  A    between atoms: N_12  and  C_13
   10  A    between atoms: C_13  and  C_14
   11  A    between atoms: C_17  and  O_18
   12  A    between atoms: C_19  and  O_20
                            x       y       z     vdW  Elec       q    Type
                         _______ _______ _______ _____ _____    ______ ____

>  <TORSDO>
F 10

>  <SCORE>
-6.325

>  <RMSD_LB>
13.529

>  <RMSD_UB>
15.157

$$$$
CHEMBL4227443
 OpenBabel10172500153D

 24 24  0  0  0  0  0  0  0  0999 V2000
  138.0170  137.7460  155.7300 C   0  0  0  0  0  0  0  0  0  0  0  0
  138.9940  137.5430  156.4440 O   0  0  0  0  0  0  0  0  0  0  0  0
  138.0560  138.5050  154.5840 N   0  0  0  0  0  0  0  0  0  0  0  0
  137.2300  138.6330  154.0650 H   0  0  0  0  0  0  0  0  0  0  0  0
  136.6530  137.1780  156.0690 C   0  0  0  0  0  2  0  0  0  0  0  0
  136.5050  135.7510  155.5560 C   0  0  0  0  0  2  0  0  0  0  0  0
  135.3220  135.6020  154.5990 C   0  0  0  0  0  2  0  0  0  0  0  0
  135.8060  135.1240  153.2290 C   0  0  0  0  0  2  0  0  0  0  0  0
  134.8790  133.9030  151.2420 C   0  0  0  0  0  3  0  0  0  0  0  0
  134.7400  134.3620  152.4970 C   0  0  0  0  0  3  0  0  0  0  0  0
  132.4960  133.8780  150.5030 C   0  0  0  0  0  1  0  0  0  0  0  0
  133.8180  133.1120  150.5170 C   0  0  0  0  0  3  0  0  0  0  0  0
  134.2700  132.8000  149.0910 C   0  0  0  0  0  1  0  0  0  0  0  0
  139.2790  139.1210  154.1220 C   0  0  0  0  0  2  0  0  0  0  0  0
  139.8380  138.4080  152.9180 C   0  0  0  0  0  0  0  0  0  0  0  0
  138.9940  138.0350  151.8540 C   0  0  0  0  0  3  0  0  0  0  0  0
  139.4940  137.3400  150.7480 C   0  0  0  0  0  3  0  0  0  0  0  0
  140.8470  137.0290  150.7000 C   0  0  0  0  0  0  0  0  0  0  0  0
  141.6930  137.4120  151.7380 C   0  0  0  0  0  0  0  0  0  0  0  0
  141.2050  138.0990  152.8420 C   0  0  0  0  0  3  0  0  0  0  0  0
  141.3970  136.3450  149.6510 O   0  0  0  0  0  0  0  0  0  0  0  0
  140.9050  136.2210  148.8640 H   0  0  0  0  0  0  0  0  0  0  0  0
  143.0230  137.1040  151.6830 O   0  0  0  0  0  0  0  0  0  0  0  0
  143.3840  136.7300  150.9030 H   0  0  0  0  0  0  0  0  0  0  0  0
  1  5  1  0  0  0  0
  1  2  2  0  0  0  0
  3  1  1  0  0  0  0
  4  3  1  0  0  0  0
  6  5  1  0  0  0  0
  7  6  1  0  0  0  0
  8  7  1  0  0  0  0
  9 10  2  0  0  0  0
 10  8  1  0  0  0  0
 11 12  1  0  0  0  0
 12  9  1  0  0  0  0
 13 12  1  0  0  0  0
 14  3  1  0  0  0  0
 15 14  1  0  0  0  0
 16 15  2  0  0  0  0
 17 16  1  0  0  0  0
 18 17  2  0  0  0  0
 18 19  1  0  0  0  0
 19 20  2  0  0  0  0
 20 15  1  0  0  0  0
 21 18  1  0  0  0  0
 22 21  1  0  0  0  0
 23 19  1  0  0  0  0
 24 23  1  0  0  0  0
M  END
>  <MODEL>
7

>  <REMARK>
 VINA RESULT:    -6.306      6.331      9.815
 INTER + INTRA:         -10.155
 INTER:                  -9.436
 INTRA:                  -0.718
 UNBOUND:                -0.530
  Name = CHEMBL4227443
  12 active torsions:
  status: ('A' for Active; 'I' for Inactive)
    1  A    between atoms: C_1  and  C_2
    2  A    between atoms: C_2  and  C_3
    3  A    between atoms: C_2  and  C_4
    4  A    between atoms: C_5  and  C_6
    5  A    between atoms: C_6  and  C_7
    6  A    between atoms: C_7  and  C_8
    7  A    between atoms: C_8  and  C_9
    8  A    between atoms: C_9  and  C_10
    9  A    between atoms: N_12  and  C_13
   10  A    between atoms: C_13  and  C_14
   11  A    between atoms: C_17  and  O_18
   12  A    between atoms: C_19  and  O_20
                            x       y       z     vdW  Elec       q    Type
                         _______ _______ _______ _____ _____    ______ ____

>  <TORSDO>
F 10

>  <SCORE>
-6.306

>  <RMSD_LB>
6.331

>  <RMSD_UB>
9.815

$$$$
CHEMBL4227443
 OpenBabel10172500153D

 24 24  0  0  0  0  0  0  0  0999 V2000
  137.1590  137.2240  154.7460 C   0  0  0  0  0  0  0  0  0  0  0  0
  136.8420  138.2080  155.4070 O   0  0  0  0  0  0  0  0  0  0  0  0
  138.1420  137.2390  153.7850 N   0  0  0  0  0  0  0  0  0  0  0  0
  138.3370  136.4130  153.2870 H   0  0  0  0  0  0  0  0  0  0  0  0
  136.4680  135.8880  154.9280 C   0  0  0  0  0  2  0  0  0  0  0  0
  134.9540  136.0520  154.9900 C   0  0  0  0  0  2  0  0  0  0  0  0
  134.2920  135.8110  153.6330 C   0  0  0  0  0  2  0  0  0  0  0  0
  134.1220  134.3100  153.3860 C   0  0  0  0  0  2  0  0  0  0  0  0
  133.5890  134.1660  150.9380 C   0  0  0  0  0  3  0  0  0  0  0  0
  134.4270  133.9420  151.9640 C   0  0  0  0  0  3  0  0  0  0  0  0
  134.2470  132.3370  149.3740 C   0  0  0  0  0  1  0  0  0  0  0  0
  133.9100  133.8210  149.5040 C   0  0  0  0  0  3  0  0  0  0  0  0
  132.7350  134.1850  148.5970 C   0  0  0  0  0  1  0  0  0  0  0  0
  138.8960  138.4340  153.4860 C   0  0  0  0  0  2  0  0  0  0  0  0
  140.3080  138.1090  153.0710 C   0  0  0  0  0  0  0  0  0  0  0  0
  140.5820  137.6620  151.7640 C   0  0  0  0  0  3  0  0  0  0  0  0
  141.8830  137.3220  151.3790 C   0  0  0  0  0  3  0  0  0  0  0  0
  142.9160  137.4440  152.2990 C   0  0  0  0  0  0  0  0  0  0  0  0
  142.6570  137.9070  153.5870 C   0  0  0  0  0  0  0  0  0  0  0  0
  141.3680  138.2430  153.9800 C   0  0  0  0  0  3  0  0  0  0  0  0
  144.2080  137.1220  151.9870 O   0  0  0  0  0  0  0  0  0  0  0  0
  144.4310  136.8780  151.1100 H   0  0  0  0  0  0  0  0  0  0  0  0
  143.6780  138.0260  154.4870 O   0  0  0  0  0  0  0  0  0  0  0  0
  144.1960  138.8060  154.5060 H   0  0  0  0  0  0  0  0  0  0  0  0
  1  5  1  0  0  0  0
  1  2  2  0  0  0  0
  3  1  1  0  0  0  0
  4  3  1  0  0  0  0
  5  6  1  0  0  0  0
  7  6  1  0  0  0  0
  8  7  1  0  0  0  0
  9 10  2  0  0  0  0
 10  8  1  0  0  0  0
 11 12  1  0  0  0  0
 12  9  1  0  0  0  0
 13 12  1  0  0  0  0
 14  3  1  0  0  0  0
 15 14  1  0  0  0  0
 15 20  1  0  0  0  0
 16 15  2  0  0  0  0
 17 16  1  0  0  0  0
 17 18  2  0  0  0  0
 18 19  1  0  0  0  0
 19 20  2  0  0  0  0
 19 23  1  0  0  0  0
 21 18  1  0  0  0  0
 22 21  1  0  0  0  0
 23 24  1  0  0  0  0
M  END
>  <MODEL>
8

>  <REMARK>
 VINA RESULT:    -6.242      6.658      9.615
 INTER + INTRA:         -10.057
 INTER:                  -9.527
 INTRA:                  -0.530
 UNBOUND:                -0.530
  Name = CHEMBL4227443
  12 active torsions:
  status: ('A' for Active; 'I' for Inactive)
    1  A    between atoms: C_1  and  C_2
    2  A    between atoms: C_2  and  C_3
    3  A    between atoms: C_2  and  C_4
    4  A    between atoms: C_5  and  C_6
    5  A    between atoms: C_6  and  C_7
    6  A    between atoms: C_7  and  C_8
    7  A    between atoms: C_8  and  C_9
    8  A    between atoms: C_9  and  C_10
    9  A    between atoms: N_12  and  C_13
   10  A    between atoms: C_13  and  C_14
   11  A    between atoms: C_17  and  O_18
   12  A    between atoms: C_19  and  O_20
                            x       y       z     vdW  Elec       q    Type
                         _______ _______ _______ _____ _____    ______ ____

>  <TORSDO>
F 10

>  <SCORE>
-6.242

>  <RMSD_LB>
6.658

>  <RMSD_UB>
9.615

$$$$
CHEMBL4227443
 OpenBabel10172500153D

 24 24  0  0  0  0  0  0  0  0999 V2000
  144.0140  139.5240  151.5190 C   0  0  0  0  0  0  0  0  0  0  0  0
  144.5810  138.9650  152.4530 O   0  0  0  0  0  0  0  0  0  0  0  0
  142.9470  138.9810  150.8430 N   0  0  0  0  0  0  0  0  0  0  0  0
  142.5470  139.4830  150.0970 H   0  0  0  0  0  0  0  0  0  0  0  0
  144.4640  140.8790  151.0130 C   0  0  0  0  0  2  0  0  0  0  0  0
  145.9790  141.0240  151.0900 C   0  0  0  0  0  2  0  0  0  0  0  0
  146.3990  142.2880  151.8390 C   0  0  0  0  0  2  0  0  0  0  0  0
  147.5950  141.9940  152.7470 C   0  0  0  0  0  2  0  0  0  0  0  0
  147.9840  139.7150  153.7240 C   0  0  0  0  0  3  0  0  0  0  0  0
  147.3050  140.8740  153.7030 C   0  0  0  0  0  3  0  0  0  0  0  0
  146.4020  138.8560  155.4500 C   0  0  0  0  0  1  0  0  0  0  0  0
  147.7110  138.6020  154.7050 C   0  0  0  0  0  3  0  0  0  0  0  0
  147.6610  137.2570  153.9800 C   0  0  0  0  0  1  0  0  0  0  0  0
  142.3960  137.6930  151.1980 C   0  0  0  0  0  2  0  0  0  0  0  0
  141.1190  137.8350  151.9870 C   0  0  0  0  0  0  0  0  0  0  0  0
  139.8780  137.5330  151.3940 C   0  0  0  0  0  3  0  0  0  0  0  0
  138.6840  137.6960  152.1050 C   0  0  0  0  0  3  0  0  0  0  0  0
  138.7330  138.1480  153.4170 C   0  0  0  0  0  0  0  0  0  0  0  0
  139.9580  138.4280  154.0170 C   0  0  0  0  0  0  0  0  0  0  0  0
  141.1480  138.2730  153.3200 C   0  0  0  0  0  3  0  0  0  0  0  0
  137.6010  138.3350  154.1620 O   0  0  0  0  0  0  0  0  0  0  0  0
  137.4030  137.7500  154.8670 H   0  0  0  0  0  0  0  0  0  0  0  0
  139.9980  138.8710  155.3090 O   0  0  0  0  0  0  0  0  0  0  0  0
  140.6820  139.4490  155.5840 H   0  0  0  0  0  0  0  0  0  0  0  0
  1  2  2  0  0  0  0
  3 14  1  0  0  0  0
  3  1  1  0  0  0  0
  4  3  1  0  0  0  0
  5  6  1  0  0  0  0
  5  1  1  0  0  0  0
  6  7  1  0  0  0  0
  7  8  1  0  0  0  0
  8 10  1  0  0  0  0
  9 12  1  0  0  0  0
 10  9  2  0  0  0  0
 12 11  1  0  0  0  0
 13 12  1  0  0  0  0
 14 15  1  0  0  0  0
 15 20  1  0  0  0  0
 16 15  2  0  0  0  0
 16 17  1  0  0  0  0
 17 18  2  0  0  0  0
 18 19  1  0  0  0  0
 18 21  1  0  0  0  0
 19 23  1  0  0  0  0
 20 19  2  0  0  0  0
 21 22  1  0  0  0  0
 23 24  1  0  0  0  0
M  END
>  <MODEL>
9

>  <REMARK>
 VINA RESULT:    -6.194      3.152      6.361
 INTER + INTRA:          -9.983
 INTER:                  -9.061
 INTRA:                  -0.922
 UNBOUND:                -0.530
  Name = CHEMBL4227443
  12 active torsions:
  status: ('A' for Active; 'I' for Inactive)
    1  A    between atoms: C_1  and  C_2
    2  A    between atoms: C_2  and  C_3
    3  A    between atoms: C_2  and  C_4
    4  A    between atoms: C_5  and  C_6
    5  A    between atoms: C_6  and  C_7
    6  A    between atoms: C_7  and  C_8
    7  A    between atoms: C_8  and  C_9
    8  A    between atoms: C_9  and  C_10
    9  A    between atoms: N_12  and  C_13
   10  A    between atoms: C_13  and  C_14
   11  A    between atoms: C_17  and  O_18
   12  A    between atoms: C_19  and  O_20
                            x       y       z     vdW  Elec       q    Type
                         _______ _______ _______ _____ _____    ______ ____

>  <TORSDO>
F 10

>  <SCORE>
-6.194

>  <RMSD_LB>
3.152

>  <RMSD_UB>
6.361

$$$$
