CHEMBL2057860
 OpenBabel10172500173D

 24 24  0  0  1  0  0  0  0  0999 V2000
  143.7350  139.6110  151.3420 C   0  0  0  0  0  0  0  0  0  0  0  0
  143.7850  139.9490  152.5170 O   0  0  0  0  0  0  0  0  0  0  0  0
  143.3280  138.3610  150.9230 N   0  0  0  0  0  0  0  0  0  0  0  0
  143.3020  138.1580  149.9600 H   0  0  0  0  0  0  0  0  0  0  0  0
  142.9380  137.3350  151.8770 C   0  0  1  0  0  3  0  0  0  0  0  0
  144.0250  137.1620  152.9410 C   0  0  0  0  0  1  0  0  0  0  0  0
  141.5760  137.6360  152.4830 C   0  0  0  0  0  0  0  0  0  0  0  0
  140.4310  137.6250  151.6750 C   0  0  0  0  0  3  0  0  0  0  0  0
  139.1780  137.9370  152.2040 C   0  0  0  0  0  3  0  0  0  0  0  0
  139.0450  138.2580  153.5580 C   0  0  0  0  0  0  0  0  0  0  0  0
  140.1670  138.2690  154.3950 C   0  0  0  0  0  0  0  0  0  0  0  0
  141.4220  137.9560  153.8430 C   0  0  0  0  0  3  0  0  0  0  0  0
  137.7960  138.5570  154.0260 O   0  0  0  0  0  0  0  0  0  0  0  0
  137.2590  139.1720  153.5660 H   0  0  0  0  0  0  0  0  0  0  0  0
  140.2160  138.5590  155.7330 O   0  0  0  0  0  0  0  0  0  0  0  0
  140.1800  137.4670  156.6440 C   0  0  0  0  0  1  0  0  0  0  0  0
  144.0900  140.5650  150.2190 C   0  0  0  0  0  2  0  0  0  0  0  0
  145.5480  141.0120  150.2940 C   0  0  0  0  0  2  0  0  0  0  0  0
  145.6870  142.4670  150.7490 C   0  0  0  0  0  2  0  0  0  0  0  0
  145.8620  142.5400  152.2640 C   0  0  0  0  0  2  0  0  0  0  0  0
  146.8020  141.4450  152.7610 C   0  0  0  0  0  2  0  0  0  0  0  0
  147.5520  141.8960  154.0120 C   0  0  0  0  0  2  0  0  0  0  0  0
  149.3610  142.0840  152.2780 C   0  0  0  0  0  1  0  0  0  0  0  0
  149.0560  141.9530  153.7600 C   0  0  0  0  0  2  0  0  0  0  0  0
  1  2  2  0  0  0  0
  3  1  1  0  0  0  0
  3  5  1  0  0  0  0
  4  3  1  0  0  0  0
  5  7  1  0  0  0  0
  5  6  1  1  0  0  0
  7 12  1  0  0  0  0
  8  9  1  0  0  0  0
  8  7  2  0  0  0  0
  9 10  2  0  0  0  0
 10 13  1  0  0  0  0
 10 11  1  0  0  0  0
 11 15  1  0  0  0  0
 12 11  2  0  0  0  0
 14 13  1  0  0  0  0
 15 16  1  0  0  0  0
 17 18  1  0  0  0  0
 17  1  1  0  0  0  0
 18 19  1  0  0  0  0
 19 20  1  0  0  0  0
 20 21  1  0  0  0  0
 21 22  1  0  0  0  0
 23 24  1  0  0  0  0
 24 22  1  0  0  0  0
M  END
>  <MODEL>
1

>  <REMARK>
 VINA RESULT:    -6.725      0.000      0.000
 INTER + INTRA:         -11.164
 INTER:                 -10.853
 INTRA:                  -0.311
 UNBOUND:                -0.311
  Name = CHEMBL2057860
  14 active torsions:
  status: ('A' for Active; 'I' for Inactive)
    1  A    between atoms: C_1  and  C_2
    2  A    between atoms: C_2  and  C_3
    3  A    between atoms: C_3  and  C_4
    4  A    between atoms: C_4  and  C_5
    5  A    between atoms: C_5  and  C_6
    6  A    between atoms: C_6  and  C_7
    7  A    between atoms: C_7  and  C_8
    8  A    between atoms: C_8  and  C_9
    9  A    between atoms: N_11  and  C_12
   10  A    between atoms: C_12  and  C_13
   11  A    between atoms: C_12  and  C_14
   12  A    between atoms: C_17  and  O_18
   13  A    between atoms: C_19  and  O_20
   14  A    between atoms: O_20  and  C_21
                            x       y       z     vdW  Elec       q    Type
                         _______ _______ _______ _____ _____    ______ ____

>  <TORSDO>
F 11

>  <SCORE>
-6.725

>  <RMSD_LB>
0.000

>  <RMSD_UB>
0.000

$$$$
CHEMBL2057860
 OpenBabel10172500173D

 24 24  0  0  1  0  0  0  0  0999 V2000
  134.8050  135.3420  154.0310 C   0  0  0  0  0  0  0  0  0  0  0  0
  134.0360  136.2940  154.0700 O   0  0  0  0  0  0  0  0  0  0  0  0
  135.9690  135.2690  154.7690 N   0  0  0  0  0  0  0  0  0  0  0  0
  136.5370  134.4690  154.6970 H   0  0  0  0  0  0  0  0  0  0  0  0
  136.3740  136.3540  155.6500 C   0  0  1  0  0  3  0  0  0  0  0  0
  136.5730  135.8310  157.0740 C   0  0  0  0  0  1  0  0  0  0  0  0
  137.6080  137.0650  155.1160 C   0  0  0  0  0  0  0  0  0  0  0  0
  138.6420  137.4270  155.9890 C   0  0  0  0  0  3  0  0  0  0  0  0
  139.7640  138.1140  155.5250 C   0  0  0  0  0  3  0  0  0  0  0  0
  139.8760  138.4460  154.1720 C   0  0  0  0  0  0  0  0  0  0  0  0
  138.8660  138.0920  153.2710 C   0  0  0  0  0  0  0  0  0  0  0  0
  137.7410  137.4030  153.7580 C   0  0  0  0  0  3  0  0  0  0  0  0
  140.9940  139.1220  153.7700 O   0  0  0  0  0  0  0  0  0  0  0  0
  141.1890  139.2030  152.8560 H   0  0  0  0  0  0  0  0  0  0  0  0
  138.8150  138.3380  151.9240 O   0  0  0  0  0  0  0  0  0  0  0  0
  139.4780  137.4190  151.0640 C   0  0  0  0  0  1  0  0  0  0  0  0
  134.5230  134.1210  153.1780 C   0  0  0  0  0  2  0  0  0  0  0  0
  135.1000  134.2660  151.7730 C   0  0  0  0  0  2  0  0  0  0  0  0
  134.0510  134.0220  150.6850 C   0  0  0  0  0  2  0  0  0  0  0  0
  132.7780  134.8090  150.9840 C   0  0  0  0  0  2  0  0  0  0  0  0
  132.8840  136.2410  150.4660 C   0  0  0  0  0  2  0  0  0  0  0  0
  133.4350  136.2670  149.0430 C   0  0  0  0  0  2  0  0  0  0  0  0
  132.9350  136.9290  146.6710 C   0  0  0  0  0  1  0  0  0  0  0  0
  132.5580  137.1200  148.1300 C   0  0  0  0  0  2  0  0  0  0  0  0
  1  2  2  0  0  0  0
  1  3  1  0  0  0  0
  3  5  1  0  0  0  0
  4  3  1  0  0  0  0
  5  6  1  1  0  0  0
  7  5  1  0  0  0  0
  7  8  1  0  0  0  0
  9  8  2  0  0  0  0
 10  9  1  0  0  0  0
 11 12  1  0  0  0  0
 11 10  2  0  0  0  0
 12  7  2  0  0  0  0
 13 10  1  0  0  0  0
 14 13  1  0  0  0  0
 15 11  1  0  0  0  0
 16 15  1  0  0  0  0
 17  1  1  0  0  0  0
 18 17  1  0  0  0  0
 19 20  1  0  0  0  0
 19 18  1  0  0  0  0
 21 20  1  0  0  0  0
 22 21  1  0  0  0  0
 23 24  1  0  0  0  0
 24 22  1  0  0  0  0
M  END
>  <MODEL>
2

>  <REMARK>
 VINA RESULT:    -6.664      5.649     10.520
 INTER + INTRA:         -11.066
 INTER:                 -10.013
 INTRA:                  -1.053
 UNBOUND:                -0.311
  Name = CHEMBL2057860
  14 active torsions:
  status: ('A' for Active; 'I' for Inactive)
    1  A    between atoms: C_1  and  C_2
    2  A    between atoms: C_2  and  C_3
    3  A    between atoms: C_3  and  C_4
    4  A    between atoms: C_4  and  C_5
    5  A    between atoms: C_5  and  C_6
    6  A    between atoms: C_6  and  C_7
    7  A    between atoms: C_7  and  C_8
    8  A    between atoms: C_8  and  C_9
    9  A    between atoms: N_11  and  C_12
   10  A    between atoms: C_12  and  C_13
   11  A    between atoms: C_12  and  C_14
   12  A    between atoms: C_17  and  O_18
   13  A    between atoms: C_19  and  O_20
   14  A    between atoms: O_20  and  C_21
                            x       y       z     vdW  Elec       q    Type
                         _______ _______ _______ _____ _____    ______ ____

>  <TORSDO>
F 11

>  <SCORE>
-6.664

>  <RMSD_LB>
5.649

>  <RMSD_UB>
10.520

$$$$
CHEMBL2057860
 OpenBabel10172500173D

 24 24  0  0  1  0  0  0  0  0999 V2000
  146.2280  138.9900  154.2090 C   0  0  0  0  0  0  0  0  0  0  0  0
  145.2590  139.6410  154.5760 O   0  0  0  0  0  0  0  0  0  0  0  0
  147.2850  139.5260  153.5020 N   0  0  0  0  0  0  0  0  0  0  0  0
  148.0390  138.9470  153.2470 H   0  0  0  0  0  0  0  0  0  0  0  0
  147.3060  140.9310  153.1240 C   0  0  1  0  0  3  0  0  0  0  0  0
  148.6330  141.5700  153.5410 C   0  0  0  0  0  1  0  0  0  0  0  0
  147.0180  141.1060  151.6410 C   0  0  0  0  0  0  0  0  0  0  0  0
  147.0060  142.3880  151.0760 C   0  0  0  0  0  3  0  0  0  0  0  0
  146.7060  142.5730  149.7260 C   0  0  0  0  0  3  0  0  0  0  0  0
  146.4200  141.4740  148.9110 C   0  0  0  0  0  0  0  0  0  0  0  0
  146.4320  140.1800  149.4420 C   0  0  0  0  0  0  0  0  0  0  0  0
  146.7330  140.0130  150.8050 C   0  0  0  0  0  3  0  0  0  0  0  0
  146.1300  141.7100  147.5960 O   0  0  0  0  0  0  0  0  0  0  0  0
  145.6030  141.1010  147.1170 H   0  0  0  0  0  0  0  0  0  0  0  0
  146.1760  139.0010  148.7910 O   0  0  0  0  0  0  0  0  0  0  0  0
  147.1770  138.5070  147.9090 C   0  0  0  0  0  1  0  0  0  0  0  0
  146.3720  137.5180  154.5360 C   0  0  0  0  0  2  0  0  0  0  0  0
  145.4330  136.6560  153.6960 C   0  0  0  0  0  2  0  0  0  0  0  0
  146.0340  136.2990  152.3340 C   0  0  0  0  0  2  0  0  0  0  0  0
  145.0650  136.6590  151.2120 C   0  0  0  0  0  2  0  0  0  0  0  0
  143.8690  137.4440  151.7480 C   0  0  0  0  0  2  0  0  0  0  0  0
  142.6070  137.1270  150.9510 C   0  0  0  0  0  2  0  0  0  0  0  0
  141.6790  138.0370  153.1020 C   0  0  0  0  0  1  0  0  0  0  0  0
  141.3560  137.3130  151.8060 C   0  0  0  0  0  2  0  0  0  0  0  0
  1 17  1  0  0  0  0
  1  2  2  0  0  0  0
  3  1  1  0  0  0  0
  4  3  1  0  0  0  0
  5  3  1  0  0  0  0
  5  6  1  6  0  0  0
  7  5  1  0  0  0  0
  8  7  1  0  0  0  0
  9  8  2  0  0  0  0
 10 11  2  0  0  0  0
 10  9  1  0  0  0  0
 11 12  1  0  0  0  0
 12  7  2  0  0  0  0
 13 10  1  0  0  0  0
 14 13  1  0  0  0  0
 15 11  1  0  0  0  0
 16 15  1  0  0  0  0
 18 17  1  0  0  0  0
 19 18  1  0  0  0  0
 20 21  1  0  0  0  0
 20 19  1  0  0  0  0
 22 21  1  0  0  0  0
 22 24  1  0  0  0  0
 24 23  1  0  0  0  0
M  END
>  <MODEL>
3

>  <REMARK>
 VINA RESULT:    -6.654      2.815      7.455
 INTER + INTRA:         -11.049
 INTER:                  -9.502
 INTRA:                  -1.547
 UNBOUND:                -0.311
  Name = CHEMBL2057860
  14 active torsions:
  status: ('A' for Active; 'I' for Inactive)
    1  A    between atoms: C_1  and  C_2
    2  A    between atoms: C_2  and  C_3
    3  A    between atoms: C_3  and  C_4
    4  A    between atoms: C_4  and  C_5
    5  A    between atoms: C_5  and  C_6
    6  A    between atoms: C_6  and  C_7
    7  A    between atoms: C_7  and  C_8
    8  A    between atoms: C_8  and  C_9
    9  A    between atoms: N_11  and  C_12
   10  A    between atoms: C_12  and  C_13
   11  A    between atoms: C_12  and  C_14
   12  A    between atoms: C_17  and  O_18
   13  A    between atoms: C_19  and  O_20
   14  A    between atoms: O_20  and  C_21
                            x       y       z     vdW  Elec       q    Type
                         _______ _______ _______ _____ _____    ______ ____

>  <TORSDO>
F 11

>  <SCORE>
-6.654

>  <RMSD_LB>
2.815

>  <RMSD_UB>
7.455

$$$$
CHEMBL2057860
 OpenBabel10172500173D

 24 24  0  0  1  0  0  0  0  0999 V2000
  144.2930  140.0280  149.4660 C   0  0  0  0  0  0  0  0  0  0  0  0
  144.9260  139.1620  148.8760 O   0  0  0  0  0  0  0  0  0  0  0  0
  144.8800  141.1020  150.1030 N   0  0  0  0  0  0  0  0  0  0  0  0
  144.3110  141.7690  150.5510 H   0  0  0  0  0  0  0  0  0  0  0  0
  146.3250  141.2690  150.1280 C   0  0  1  0  0  3  0  0  0  0  0  0
  146.7030  142.6710  149.6460 C   0  0  0  0  0  1  0  0  0  0  0  0
  146.8920  140.9560  151.5040 C   0  0  0  0  0  0  0  0  0  0  0  0
  147.1240  141.9920  152.4190 C   0  0  0  0  0  3  0  0  0  0  0  0
  147.6800  141.7310  153.6720 C   0  0  0  0  0  3  0  0  0  0  0  0
  148.0060  140.4220  154.0370 C   0  0  0  0  0  0  0  0  0  0  0  0
  147.7790  139.3630  153.1520 C   0  0  0  0  0  0  0  0  0  0  0  0
  147.2220  139.6460  151.8920 C   0  0  0  0  0  3  0  0  0  0  0  0
  148.5500  140.2200  155.2750 O   0  0  0  0  0  0  0  0  0  0  0  0
  148.3210  140.7870  155.9860 H   0  0  0  0  0  0  0  0  0  0  0  0
  148.0390  138.0320  153.3470 O   0  0  0  0  0  0  0  0  0  0  0  0
  149.3560  137.5720  153.0660 C   0  0  0  0  0  1  0  0  0  0  0  0
  142.7790  140.0150  149.5210 C   0  0  0  0  0  2  0  0  0  0  0  0
  142.2650  139.6600  150.9130 C   0  0  0  0  0  2  0  0  0  0  0  0
  141.2440  138.5190  150.8830 C   0  0  0  0  0  2  0  0  0  0  0  0
  141.7510  137.3260  151.6890 C   0  0  0  0  0  2  0  0  0  0  0  0
  142.8990  137.7340  152.6100 C   0  0  0  0  0  2  0  0  0  0  0  0
  142.4200  137.8600  154.0540 C   0  0  0  0  0  2  0  0  0  0  0  0
  144.2950  139.5260  154.2100 C   0  0  0  0  0  1  0  0  0  0  0  0
  142.8940  139.1690  154.6780 C   0  0  0  0  0  2  0  0  0  0  0  0
  1 17  1  0  0  0  0
  1  3  1  0  0  0  0
  2  1  2  0  0  0  0
  3  5  1  0  0  0  0
  3  4  1  0  0  0  0
  5  6  1  1  0  0  0
  5  7  1  0  0  0  0
  7 12  2  0  0  0  0
  7  8  1  0  0  0  0
  8  9  2  0  0  0  0
  9 10  1  0  0  0  0
 10 13  1  0  0  0  0
 11 15  1  0  0  0  0
 11 10  2  0  0  0  0
 12 11  1  0  0  0  0
 13 14  1  0  0  0  0
 16 15  1  0  0  0  0
 17 18  1  0  0  0  0
 19 18  1  0  0  0  0
 19 20  1  0  0  0  0
 20 21  1  0  0  0  0
 21 22  1  0  0  0  0
 22 24  1  0  0  0  0
 23 24  1  0  0  0  0
M  END
>  <MODEL>
4

>  <REMARK>
 VINA RESULT:    -6.629      3.217      6.814
 INTER + INTRA:         -11.010
 INTER:                  -9.432
 INTRA:                  -1.578
 UNBOUND:                -0.311
  Name = CHEMBL2057860
  14 active torsions:
  status: ('A' for Active; 'I' for Inactive)
    1  A    between atoms: C_1  and  C_2
    2  A    between atoms: C_2  and  C_3
    3  A    between atoms: C_3  and  C_4
    4  A    between atoms: C_4  and  C_5
    5  A    between atoms: C_5  and  C_6
    6  A    between atoms: C_6  and  C_7
    7  A    between atoms: C_7  and  C_8
    8  A    between atoms: C_8  and  C_9
    9  A    between atoms: N_11  and  C_12
   10  A    between atoms: C_12  and  C_13
   11  A    between atoms: C_12  and  C_14
   12  A    between atoms: C_17  and  O_18
   13  A    between atoms: C_19  and  O_20
   14  A    between atoms: O_20  and  C_21
                            x       y       z     vdW  Elec       q    Type
                         _______ _______ _______ _____ _____    ______ ____

>  <TORSDO>
F 11

>  <SCORE>
-6.629

>  <RMSD_LB>
3.217

>  <RMSD_UB>
6.814

$$$$
CHEMBL2057860
 OpenBabel10172500173D

 24 24  0  0  1  0  0  0  0  0999 V2000
  140.0210  137.7680  155.7420 C   0  0  0  0  0  0  0  0  0  0  0  0
  140.6740  137.1420  156.5670 O   0  0  0  0  0  0  0  0  0  0  0  0
  138.6420  137.7380  155.6780 N   0  0  0  0  0  0  0  0  0  0  0  0
  138.1780  138.2740  154.9950 H   0  0  0  0  0  0  0  0  0  0  0  0
  137.8610  136.9280  156.6000 C   0  0  1  0  0  3  0  0  0  0  0  0
  137.3430  137.7910  157.7530 C   0  0  0  0  0  1  0  0  0  0  0  0
  136.7410  136.1960  155.8750 C   0  0  0  0  0  0  0  0  0  0  0  0
  136.7040  136.1810  154.4750 C   0  0  0  0  0  3  0  0  0  0  0  0
  135.6640  135.5490  153.7920 C   0  0  0  0  0  3  0  0  0  0  0  0
  134.6440  134.9100  154.5010 C   0  0  0  0  0  0  0  0  0  0  0  0
  134.6550  134.8980  155.9000 C   0  0  0  0  0  0  0  0  0  0  0  0
  135.7080  135.5440  156.5710 C   0  0  0  0  0  3  0  0  0  0  0  0
  133.6470  134.3070  153.7850 O   0  0  0  0  0  0  0  0  0  0  0  0
  132.9520  133.8640  154.2310 H   0  0  0  0  0  0  0  0  0  0  0  0
  133.7410  134.3240  156.7440 O   0  0  0  0  0  0  0  0  0  0  0  0
  133.8720  134.5930  158.1360 C   0  0  0  0  0  1  0  0  0  0  0  0
  140.6780  138.6750  154.7220 C   0  0  0  0  0  2  0  0  0  0  0  0
  141.8840  138.0080  154.0650 C   0  0  0  0  0  2  0  0  0  0  0  0
  141.8180  138.0640  152.5360 C   0  0  0  0  0  2  0  0  0  0  0  0
  140.4310  137.6560  152.0460 C   0  0  0  0  0  2  0  0  0  0  0  0
  140.4730  137.2130  150.5850 C   0  0  0  0  0  2  0  0  0  0  0  0
  140.0510  138.3490  149.6580 C   0  0  0  0  0  2  0  0  0  0  0  0
  139.4160  140.7380  150.1140 C   0  0  0  0  0  1  0  0  0  0  0  0
  139.0580  139.2800  150.3480 C   0  0  0  0  0  2  0  0  0  0  0  0
  1  2  2  0  0  0  0
  3  1  1  0  0  0  0
  3  5  1  0  0  0  0
  4  3  1  0  0  0  0
  5  6  1  1  0  0  0
  7 12  1  0  0  0  0
  7  5  1  0  0  0  0
  8  7  2  0  0  0  0
  9  8  1  0  0  0  0
  9 10  2  0  0  0  0
 10 11  1  0  0  0  0
 11 12  2  0  0  0  0
 11 15  1  0  0  0  0
 13 14  1  0  0  0  0
 13 10  1  0  0  0  0
 15 16  1  0  0  0  0
 17  1  1  0  0  0  0
 18 17  1  0  0  0  0
 19 18  1  0  0  0  0
 20 19  1  0  0  0  0
 21 20  1  0  0  0  0
 22 24  1  0  0  0  0
 22 21  1  0  0  0  0
 23 24  1  0  0  0  0
M  END
>  <MODEL>
5

>  <REMARK>
 VINA RESULT:    -6.620      4.594      7.131
 INTER + INTRA:         -10.995
 INTER:                 -10.000
 INTRA:                  -0.996
 UNBOUND:                -0.311
  Name = CHEMBL2057860
  14 active torsions:
  status: ('A' for Active; 'I' for Inactive)
    1  A    between atoms: C_1  and  C_2
    2  A    between atoms: C_2  and  C_3
    3  A    between atoms: C_3  and  C_4
    4  A    between atoms: C_4  and  C_5
    5  A    between atoms: C_5  and  C_6
    6  A    between atoms: C_6  and  C_7
    7  A    between atoms: C_7  and  C_8
    8  A    between atoms: C_8  and  C_9
    9  A    between atoms: N_11  and  C_12
   10  A    between atoms: C_12  and  C_13
   11  A    between atoms: C_12  and  C_14
   12  A    between atoms: C_17  and  O_18
   13  A    between atoms: C_19  and  O_20
   14  A    between atoms: O_20  and  C_21
                            x       y       z     vdW  Elec       q    Type
                         _______ _______ _______ _____ _____    ______ ____

>  <TORSDO>
F 11

>  <SCORE>
-6.620

>  <RMSD_LB>
4.594

>  <RMSD_UB>
7.131

$$$$
CHEMBL2057860
 OpenBabel10172500173D

 24 24  0  0  1  0  0  0  0  0999 V2000
  148.0680  140.6050  153.9450 C   0  0  0  0  0  0  0  0  0  0  0  0
  149.2900  140.5460  153.9600 O   0  0  0  0  0  0  0  0  0  0  0  0
  147.2500  139.5020  153.8020 N   0  0  0  0  0  0  0  0  0  0  0  0
  146.2730  139.6210  153.8090 H   0  0  0  0  0  0  0  0  0  0  0  0
  147.8050  138.1670  153.6410 C   0  0  1  0  0  3  0  0  0  0  0  0
  147.8050  137.4290  154.9820 C   0  0  0  0  0  1  0  0  0  0  0  0
  147.0720  137.3950  152.5540 C   0  0  0  0  0  0  0  0  0  0  0  0
  147.7970  136.6710  151.5980 C   0  0  0  0  0  3  0  0  0  0  0  0
  147.1450  135.9880  150.5710 C   0  0  0  0  0  3  0  0  0  0  0  0
  145.7500  136.0100  150.4860 C   0  0  0  0  0  0  0  0  0  0  0  0
  144.9950  136.7160  151.4290 C   0  0  0  0  0  0  0  0  0  0  0  0
  145.6700  137.4010  152.4550 C   0  0  0  0  0  3  0  0  0  0  0  0
  145.1600  135.3270  149.4590 O   0  0  0  0  0  0  0  0  0  0  0  0
  144.5450  135.7600  148.9010 H   0  0  0  0  0  0  0  0  0  0  0  0
  143.6330  136.8420  151.4930 O   0  0  0  0  0  0  0  0  0  0  0  0
  143.1010  138.1510  151.6620 C   0  0  0  0  0  1  0  0  0  0  0  0
  147.3290  141.9170  154.1200 C   0  0  0  0  0  2  0  0  0  0  0  0
  146.5000  142.2700  152.8880 C   0  0  0  0  0  2  0  0  0  0  0  0
  147.3070  142.1540  151.5920 C   0  0  0  0  0  2  0  0  0  0  0  0
  146.4950  142.6740  150.4090 C   0  0  0  0  0  2  0  0  0  0  0  0
  146.3330  141.5970  149.3380 C   0  0  0  0  0  2  0  0  0  0  0  0
  145.5760  140.3920  149.8870 C   0  0  0  0  0  2  0  0  0  0  0  0
  146.9600  139.0130  148.3070 C   0  0  0  0  0  1  0  0  0  0  0  0
  145.5740  139.2400  148.8850 C   0  0  0  0  0  2  0  0  0  0  0  0
  1  2  2  0  0  0  0
  1 17  1  0  0  0  0
  3  4  1  0  0  0  0
  3  1  1  0  0  0  0
  5  3  1  0  0  0  0
  5  6  1  1  0  0  0
  7  5  1  0  0  0  0
  8  7  2  0  0  0  0
  9  8  1  0  0  0  0
 10  9  2  0  0  0  0
 10 11  1  0  0  0  0
 11 15  1  0  0  0  0
 11 12  2  0  0  0  0
 12  7  1  0  0  0  0
 13 10  1  0  0  0  0
 14 13  1  0  0  0  0
 15 16  1  0  0  0  0
 18 17  1  0  0  0  0
 19 18  1  0  0  0  0
 20 19  1  0  0  0  0
 21 22  1  0  0  0  0
 21 20  1  0  0  0  0
 23 24  1  0  0  0  0
 24 22  1  0  0  0  0
M  END
>  <MODEL>
6

>  <REMARK>
 VINA RESULT:    -6.527      3.269      5.662
 INTER + INTRA:         -10.845
 INTER:                  -9.153
 INTRA:                  -1.691
 UNBOUND:                -0.311
  Name = CHEMBL2057860
  14 active torsions:
  status: ('A' for Active; 'I' for Inactive)
    1  A    between atoms: C_1  and  C_2
    2  A    between atoms: C_2  and  C_3
    3  A    between atoms: C_3  and  C_4
    4  A    between atoms: C_4  and  C_5
    5  A    between atoms: C_5  and  C_6
    6  A    between atoms: C_6  and  C_7
    7  A    between atoms: C_7  and  C_8
    8  A    between atoms: C_8  and  C_9
    9  A    between atoms: N_11  and  C_12
   10  A    between atoms: C_12  and  C_13
   11  A    between atoms: C_12  and  C_14
   12  A    between atoms: C_17  and  O_18
   13  A    between atoms: C_19  and  O_20
   14  A    between atoms: O_20  and  C_21
                            x       y       z     vdW  Elec       q    Type
                         _______ _______ _______ _____ _____    ______ ____

>  <TORSDO>
F 11

>  <SCORE>
-6.527

>  <RMSD_LB>
3.269

>  <RMSD_UB>
5.662

$$$$
CHEMBL2057860
 OpenBabel10172500173D

 24 24  0  0  1  0  0  0  0  0999 V2000
  139.9660  138.0280  155.4840 C   0  0  0  0  0  0  0  0  0  0  0  0
  140.7370  137.4260  156.2210 O   0  0  0  0  0  0  0  0  0  0  0  0
  138.5950  137.8730  155.5230 N   0  0  0  0  0  0  0  0  0  0  0  0
  138.0320  138.3960  154.9080 H   0  0  0  0  0  0  0  0  0  0  0  0
  137.9650  136.9500  156.4540 C   0  0  1  0  0  3  0  0  0  0  0  0
  137.5340  137.6900  157.7220 C   0  0  0  0  0  1  0  0  0  0  0  0
  136.8130  136.2050  155.7960 C   0  0  0  0  0  0  0  0  0  0  0  0
  136.7070  136.1720  154.3990 C   0  0  0  0  0  3  0  0  0  0  0  0
  135.6360  135.5280  153.7780 C   0  0  0  0  0  3  0  0  0  0  0  0
  134.6540  134.8960  154.5460 C   0  0  0  0  0  0  0  0  0  0  0  0
  134.7340  134.9030  155.9420 C   0  0  0  0  0  0  0  0  0  0  0  0
  135.8180  135.5600  156.5510 C   0  0  0  0  0  3  0  0  0  0  0  0
  133.6240  134.2810  153.8880 O   0  0  0  0  0  0  0  0  0  0  0  0
  133.1680  133.5700  154.2940 H   0  0  0  0  0  0  0  0  0  0  0  0
  133.8650  134.3390  156.8390 O   0  0  0  0  0  0  0  0  0  0  0  0
  133.9950  134.7150  158.2050 C   0  0  0  0  0  1  0  0  0  0  0  0
  140.4560  139.0410  154.4700 C   0  0  0  0  0  2  0  0  0  0  0  0
  140.8660  138.3760  153.1580 C   0  0  0  0  0  2  0  0  0  0  0  0
  142.3530  138.5680  152.8480 C   0  0  0  0  0  2  0  0  0  0  0  0
  142.9150  137.3370  152.1430 C   0  0  0  0  0  2  0  0  0  0  0  0
  144.4270  137.2360  152.3340 C   0  0  0  0  0  2  0  0  0  0  0  0
  144.7740  136.9370  153.7900 C   0  0  0  0  0  2  0  0  0  0  0  0
  145.4050  139.1220  154.8600 C   0  0  0  0  0  1  0  0  0  0  0  0
  145.9220  137.8190  154.2740 C   0  0  0  0  0  2  0  0  0  0  0  0
  1  3  1  0  0  0  0
  1  2  2  0  0  0  0
  3  5  1  0  0  0  0
  4  3  1  0  0  0  0
  5  6  1  1  0  0  0
  7  5  1  0  0  0  0
  7 12  1  0  0  0  0
  8  7  2  0  0  0  0
  9  8  1  0  0  0  0
  9 10  2  0  0  0  0
 10 11  1  0  0  0  0
 11 12  2  0  0  0  0
 11 15  1  0  0  0  0
 13 14  1  0  0  0  0
 13 10  1  0  0  0  0
 15 16  1  0  0  0  0
 17  1  1  0  0  0  0
 18 17  1  0  0  0  0
 19 18  1  0  0  0  0
 20 21  1  0  0  0  0
 20 19  1  0  0  0  0
 21 22  1  0  0  0  0
 22 24  1  0  0  0  0
 24 23  1  0  0  0  0
M  END
>  <MODEL>
7

>  <REMARK>
 VINA RESULT:    -6.521      3.925      6.075
 INTER + INTRA:         -10.834
 INTER:                  -9.965
 INTRA:                  -0.870
 UNBOUND:                -0.311
  Name = CHEMBL2057860
  14 active torsions:
  status: ('A' for Active; 'I' for Inactive)
    1  A    between atoms: C_1  and  C_2
    2  A    between atoms: C_2  and  C_3
    3  A    between atoms: C_3  and  C_4
    4  A    between atoms: C_4  and  C_5
    5  A    between atoms: C_5  and  C_6
    6  A    between atoms: C_6  and  C_7
    7  A    between atoms: C_7  and  C_8
    8  A    between atoms: C_8  and  C_9
    9  A    between atoms: N_11  and  C_12
   10  A    between atoms: C_12  and  C_13
   11  A    between atoms: C_12  and  C_14
   12  A    between atoms: C_17  and  O_18
   13  A    between atoms: C_19  and  O_20
   14  A    between atoms: O_20  and  C_21
                            x       y       z     vdW  Elec       q    Type
                         _______ _______ _______ _____ _____    ______ ____

>  <TORSDO>
F 11

>  <SCORE>
-6.521

>  <RMSD_LB>
3.925

>  <RMSD_UB>
6.075

$$$$
CHEMBL2057860
 OpenBabel10172500173D

 24 24  0  0  1  0  0  0  0  0999 V2000
  136.7870  136.3730  151.4560 C   0  0  0  0  0  0  0  0  0  0  0  0
  137.4710  137.3870  151.4930 O   0  0  0  0  0  0  0  0  0  0  0  0
  136.5320  135.6650  150.2990 N   0  0  0  0  0  0  0  0  0  0  0  0
  135.9800  134.8500  150.3420 H   0  0  0  0  0  0  0  0  0  0  0  0
  137.0590  136.1000  149.0150 C   0  0  1  0  0  3  0  0  0  0  0  0
  138.2260  135.2040  148.5930 C   0  0  0  0  0  1  0  0  0  0  0  0
  135.9640  136.1610  147.9620 C   0  0  0  0  0  0  0  0  0  0  0  0
  134.8660  137.0120  148.1400 C   0  0  0  0  0  3  0  0  0  0  0  0
  133.8320  137.0530  147.2040 C   0  0  0  0  0  3  0  0  0  0  0  0
  133.8820  136.2470  146.0640 C   0  0  0  0  0  0  0  0  0  0  0  0
  134.9690  135.3920  145.8500 C   0  0  0  0  0  0  0  0  0  0  0  0
  135.9990  135.3610  146.8060 C   0  0  0  0  0  3  0  0  0  0  0  0
  132.8430  136.3240  145.1790 O   0  0  0  0  0  0  0  0  0  0  0  0
  132.8470  135.7970  144.4040 H   0  0  0  0  0  0  0  0  0  0  0  0
  135.1760  134.5410  144.7960 O   0  0  0  0  0  0  0  0  0  0  0  0
  134.9040  133.1600  145.0050 C   0  0  0  0  0  1  0  0  0  0  0  0
  136.1770  135.7740  152.7070 C   0  0  0  0  0  2  0  0  0  0  0  0
  135.8160  134.3030  152.5140 C   0  0  0  0  0  2  0  0  0  0  0  0
  134.3350  134.0270  152.7810 C   0  0  0  0  0  2  0  0  0  0  0  0
  133.4810  135.2090  152.3310 C   0  0  0  0  0  2  0  0  0  0  0  0
  133.2450  135.1730  150.8220 C   0  0  0  0  0  2  0  0  0  0  0  0
  132.4130  133.9540  150.4300 C   0  0  0  0  0  2  0  0  0  0  0  0
  134.2850  133.0100  149.0450 C   0  0  0  0  0  1  0  0  0  0  0  0
  132.8250  133.4270  149.0580 C   0  0  0  0  0  2  0  0  0  0  0  0
  1  2  2  0  0  0  0
  1 17  1  0  0  0  0
  3  4  1  0  0  0  0
  3  1  1  0  0  0  0
  5  6  1  6  0  0  0
  5  3  1  0  0  0  0
  7  8  1  0  0  0  0
  7  5  1  0  0  0  0
  9  8  2  0  0  0  0
 10  9  1  0  0  0  0
 11 10  2  0  0  0  0
 11 12  1  0  0  0  0
 12  7  2  0  0  0  0
 13 10  1  0  0  0  0
 14 13  1  0  0  0  0
 15 16  1  0  0  0  0
 15 11  1  0  0  0  0
 18 17  1  0  0  0  0
 18 19  1  0  0  0  0
 20 19  1  0  0  0  0
 21 20  1  0  0  0  0
 22 21  1  0  0  0  0
 23 24  1  0  0  0  0
 24 22  1  0  0  0  0
M  END
>  <MODEL>
8

>  <REMARK>
 VINA RESULT:    -6.456      8.199     11.683
 INTER + INTRA:         -10.730
 INTER:                  -8.744
 INTRA:                  -1.987
 UNBOUND:                -0.311
  Name = CHEMBL2057860
  14 active torsions:
  status: ('A' for Active; 'I' for Inactive)
    1  A    between atoms: C_1  and  C_2
    2  A    between atoms: C_2  and  C_3
    3  A    between atoms: C_3  and  C_4
    4  A    between atoms: C_4  and  C_5
    5  A    between atoms: C_5  and  C_6
    6  A    between atoms: C_6  and  C_7
    7  A    between atoms: C_7  and  C_8
    8  A    between atoms: C_8  and  C_9
    9  A    between atoms: N_11  and  C_12
   10  A    between atoms: C_12  and  C_13
   11  A    between atoms: C_12  and  C_14
   12  A    between atoms: C_17  and  O_18
   13  A    between atoms: C_19  and  O_20
   14  A    between atoms: O_20  and  C_21
                            x       y       z     vdW  Elec       q    Type
                         _______ _______ _______ _____ _____    ______ ____

>  <TORSDO>
F 11

>  <SCORE>
-6.456

>  <RMSD_LB>
8.199

>  <RMSD_UB>
11.683

$$$$
CHEMBL2057860
 OpenBabel10172500173D

 24 24  0  0  1  0  0  0  0  0999 V2000
  148.0650  140.6420  153.9480 C   0  0  0  0  0  0  0  0  0  0  0  0
  149.2880  140.6040  153.9950 O   0  0  0  0  0  0  0  0  0  0  0  0
  147.2720  139.5250  153.7780 N   0  0  0  0  0  0  0  0  0  0  0  0
  146.2930  139.6260  153.7590 H   0  0  0  0  0  0  0  0  0  0  0  0
  147.8540  138.2010  153.6240 C   0  0  1  0  0  3  0  0  0  0  0  0
  147.8210  137.4510  154.9580 C   0  0  0  0  0  1  0  0  0  0  0  0
  147.1730  137.4270  152.5060 C   0  0  0  0  0  0  0  0  0  0  0  0
  145.8040  137.1410  152.5840 C   0  0  0  0  0  3  0  0  0  0  0  0
  145.1690  136.3980  151.5880 C   0  0  0  0  0  3  0  0  0  0  0  0
  145.8930  135.9340  150.4870 C   0  0  0  0  0  0  0  0  0  0  0  0
  147.2600  136.2100  150.3730 C   0  0  0  0  0  0  0  0  0  0  0  0
  147.8840  136.9560  151.3880 C   0  0  0  0  0  3  0  0  0  0  0  0
  145.2250  135.2090  149.5400 O   0  0  0  0  0  0  0  0  0  0  0  0
  145.5500  134.3710  149.2760 H   0  0  0  0  0  0  0  0  0  0  0  0
  148.1140  135.8340  149.3690 O   0  0  0  0  0  0  0  0  0  0  0  0
  149.3670  135.2760  149.7480 C   0  0  0  0  0  1  0  0  0  0  0  0
  147.2990  141.9390  154.1100 C   0  0  0  0  0  2  0  0  0  0  0  0
  146.4930  142.2820  152.8590 C   0  0  0  0  0  2  0  0  0  0  0  0
  147.3110  142.1100  151.5760 C   0  0  0  0  0  2  0  0  0  0  0  0
  146.5370  142.6430  150.3740 C   0  0  0  0  0  2  0  0  0  0  0  0
  146.3750  141.5660  149.3030 C   0  0  0  0  0  2  0  0  0  0  0  0
  145.6160  140.3610  149.8510 C   0  0  0  0  0  2  0  0  0  0  0  0
  146.9040  139.0550  148.1340 C   0  0  0  0  0  1  0  0  0  0  0  0
  145.5640  139.2320  148.8260 C   0  0  0  0  0  2  0  0  0  0  0  0
  1  2  2  0  0  0  0
  1 17  1  0  0  0  0
  3  1  1  0  0  0  0
  4  3  1  0  0  0  0
  5  3  1  0  0  0  0
  5  6  1  1  0  0  0
  7  8  1  0  0  0  0
  7  5  1  0  0  0  0
  9  8  2  0  0  0  0
 10  9  1  0  0  0  0
 11 10  2  0  0  0  0
 11 12  1  0  0  0  0
 12  7  2  0  0  0  0
 13 10  1  0  0  0  0
 14 13  1  0  0  0  0
 15 16  1  0  0  0  0
 15 11  1  0  0  0  0
 18 17  1  0  0  0  0
 19 18  1  0  0  0  0
 20 19  1  0  0  0  0
 21 22  1  0  0  0  0
 21 20  1  0  0  0  0
 23 24  1  0  0  0  0
 24 22  1  0  0  0  0
M  END
>  <MODEL>
9

>  <REMARK>
 VINA RESULT:    -6.449      4.654      6.402
 INTER + INTRA:         -10.719
 INTER:                  -9.131
 INTRA:                  -1.587
 UNBOUND:                -0.311
  Name = CHEMBL2057860
  14 active torsions:
  status: ('A' for Active; 'I' for Inactive)
    1  A    between atoms: C_1  and  C_2
    2  A    between atoms: C_2  and  C_3
    3  A    between atoms: C_3  and  C_4
    4  A    between atoms: C_4  and  C_5
    5  A    between atoms: C_5  and  C_6
    6  A    between atoms: C_6  and  C_7
    7  A    between atoms: C_7  and  C_8
    8  A    between atoms: C_8  and  C_9
    9  A    between atoms: N_11  and  C_12
   10  A    between atoms: C_12  and  C_13
   11  A    between atoms: C_12  and  C_14
   12  A    between atoms: C_17  and  O_18
   13  A    between atoms: C_19  and  O_20
   14  A    between atoms: O_20  and  C_21
                            x       y       z     vdW  Elec       q    Type
                         _______ _______ _______ _____ _____    ______ ____

>  <TORSDO>
F 11

>  <SCORE>
-6.449

>  <RMSD_LB>
4.654

>  <RMSD_UB>
6.402

$$$$
