CHEMBL4865678
 OpenBabel10162523543D

 26 27  0  0  0  0  0  0  0  0999 V2000
  134.3490  135.2860  152.0850 C   0  0  0  0  0  0  0  0  0  0  0  0
  135.0880  136.2630  152.1870 O   0  0  0  0  0  0  0  0  0  0  0  0
  133.6960  134.7430  153.1700 N   0  0  0  0  0  0  0  0  0  0  0  0
  133.1200  133.9550  153.0400 H   0  0  0  0  0  0  0  0  0  0  0  0
  135.1340  134.0030  148.6070 C   0  0  0  0  0  0  0  0  0  0  0  0
  133.9170  133.4620  148.2020 C   0  0  0  0  0  3  0  0  0  0  0  0
  132.8090  133.5080  149.0540 C   0  0  0  0  0  3  0  0  0  0  0  0
  132.9150  134.0940  150.3190 C   0  0  0  0  0  0  0  0  0  0  0  0
  134.1330  134.6420  150.7490 C   0  0  0  0  0  0  0  0  0  0  0  0
  135.2350  134.5880  149.8740 C   0  0  0  0  0  3  0  0  0  0  0  0
  136.2960  134.8610  146.7140 C   0  0  0  0  0  1  0  0  0  0  0  0
  136.2840  134.0250  147.8660 O   0  0  0  0  0  0  0  0  0  0  0  0
  131.8030  134.1190  151.1220 O   0  0  0  0  0  0  0  0  0  0  0  0
  131.3530  134.9260  151.2740 H   0  0  0  0  0  0  0  0  0  0  0  0
  133.8360  135.3050  154.5020 C   0  0  0  0  0  2  0  0  0  0  0  0
  134.9710  134.6610  155.3020 C   0  0  0  0  0  2  0  0  0  0  0  0
  135.6850  135.6550  156.1890 C   0  0  0  0  0  0  0  0  0  0  0  0
  135.8310  135.4100  157.5580 C   0  0  0  0  0  3  0  0  0  0  0  0
  136.5060  136.3240  158.3710 C   0  0  0  0  0  3  0  0  0  0  0  0
  137.0470  137.4930  157.8270 C   0  0  0  0  0  0  0  0  0  0  0  0
  136.9150  137.7610  156.4590 C   0  0  0  0  0  0  0  0  0  0  0  0
  136.2360  136.8300  155.6550 C   0  0  0  0  0  3  0  0  0  0  0  0
  137.6990  138.3520  158.6670 O   0  0  0  0  0  0  0  0  0  0  0  0
  138.3950  138.0380  159.2100 H   0  0  0  0  0  0  0  0  0  0  0  0
  137.3710  138.8460  155.7590 O   0  0  0  0  0  0  0  0  0  0  0  0
  138.1960  138.6120  154.6260 C   0  0  0  0  0  1  0  0  0  0  0  0
  1  2  2  0  0  0  0
  1  3  1  0  0  0  0
  3 15  1  0  0  0  0
  4  3  1  0  0  0  0
  5 10  1  0  0  0  0
  6  5  2  0  0  0  0
  6  7  1  0  0  0  0
  7  8  2  0  0  0  0
  8  9  1  0  0  0  0
  8 13  1  0  0  0  0
  9  1  1  0  0  0  0
 10  9  2  0  0  0  0
 11 12  1  0  0  0  0
 12  5  1  0  0  0  0
 13 14  1  0  0  0  0
 15 16  1  0  0  0  0
 16 17  1  0  0  0  0
 17 18  1  0  0  0  0
 18 19  2  0  0  0  0
 20 19  1  0  0  0  0
 20 23  1  0  0  0  0
 21 20  2  0  0  0  0
 22 17  2  0  0  0  0
 22 21  1  0  0  0  0
 23 24  1  0  0  0  0
 25 21  1  0  0  0  0
 26 25  1  0  0  0  0
M  END
>  <MODEL>
1

>  <REMARK>
 VINA RESULT:    -7.472      0.000      0.000
 INTER + INTRA:         -11.205
 INTER:                 -10.460
 INTRA:                  -0.745
 UNBOUND:                -0.675
  Name = CHEMBL4865678
  10 active torsions:
  status: ('A' for Active; 'I' for Inactive)
    1  A    between atoms: C_1  and  O_2
    2  A    between atoms: O_2  and  C_3
    3  A    between atoms: C_6  and  O_7
    4  A    between atoms: C_8  and  C_9
    5  A    between atoms: N_11  and  C_12
    6  A    between atoms: C_12  and  C_13
    7  A    between atoms: C_13  and  C_14
    8  A    between atoms: C_17  and  O_18
    9  A    between atoms: C_19  and  O_20
   10  A    between atoms: O_20  and  C_21
                            x       y       z     vdW  Elec       q    Type
                         _______ _______ _______ _____ _____    ______ ____

>  <TORSDO>
F 8

>  <SCORE>
-7.472

>  <RMSD_LB>
0.000

>  <RMSD_UB>
0.000

$$$$
CHEMBL4865678
 OpenBabel10162523543D

 26 27  0  0  0  0  0  0  0  0999 V2000
  134.8960  135.1790  154.9950 C   0  0  0  0  0  0  0  0  0  0  0  0
  133.8120  134.8640  155.4820 O   0  0  0  0  0  0  0  0  0  0  0  0
  135.2770  134.7810  153.7320 N   0  0  0  0  0  0  0  0  0  0  0  0
  136.1590  135.0520  153.3880 H   0  0  0  0  0  0  0  0  0  0  0  0
  137.3920  137.9300  155.7460 C   0  0  0  0  0  0  0  0  0  0  0  0
  137.6830  137.7160  157.0900 C   0  0  0  0  0  3  0  0  0  0  0  0
  137.0730  136.6650  157.7830 C   0  0  0  0  0  3  0  0  0  0  0  0
  136.1670  135.8230  157.1320 C   0  0  0  0  0  0  0  0  0  0  0  0
  135.8570  136.0220  155.7790 C   0  0  0  0  0  0  0  0  0  0  0  0
  136.4830  137.0850  155.1000 C   0  0  0  0  0  3  0  0  0  0  0  0
  139.2860  138.7720  154.5740 C   0  0  0  0  0  1  0  0  0  0  0  0
  137.9240  138.9170  154.9610 O   0  0  0  0  0  0  0  0  0  0  0  0
  135.5940  134.8030  157.8490 O   0  0  0  0  0  0  0  0  0  0  0  0
  134.9750  134.9960  158.5250 H   0  0  0  0  0  0  0  0  0  0  0  0
  134.4090  133.9720  152.8950 C   0  0  0  0  0  2  0  0  0  0  0  0
  133.4910  134.8110  152.0050 C   0  0  0  0  0  2  0  0  0  0  0  0
  133.4960  134.3430  150.5680 C   0  0  0  0  0  0  0  0  0  0  0  0
  133.9330  133.0560  150.2410 C   0  0  0  0  0  3  0  0  0  0  0  0
  133.9220  132.6220  148.9130 C   0  0  0  0  0  3  0  0  0  0  0  0
  133.4720  133.4680  147.8940 C   0  0  0  0  0  0  0  0  0  0  0  0
  133.0290  134.7610  148.1950 C   0  0  0  0  0  0  0  0  0  0  0  0
  133.0430  135.1800  149.5370 C   0  0  0  0  0  3  0  0  0  0  0  0
  133.4800  132.9920  146.6120 O   0  0  0  0  0  0  0  0  0  0  0  0
  133.0100  133.4450  145.9410 H   0  0  0  0  0  0  0  0  0  0  0  0
  132.5620  135.7200  147.3370 O   0  0  0  0  0  0  0  0  0  0  0  0
  132.6460  137.0790  147.7430 C   0  0  0  0  0  1  0  0  0  0  0  0
  1  2  2  0  0  0  0
  1  9  1  0  0  0  0
  3  1  1  0  0  0  0
  4  3  1  0  0  0  0
  5  6  1  0  0  0  0
  6  7  2  0  0  0  0
  8  7  1  0  0  0  0
  8 13  1  0  0  0  0
  9  8  2  0  0  0  0
 10  5  2  0  0  0  0
 10  9  1  0  0  0  0
 11 12  1  0  0  0  0
 12  5  1  0  0  0  0
 13 14  1  0  0  0  0
 15  3  1  0  0  0  0
 16 15  1  0  0  0  0
 17 16  1  0  0  0  0
 18 17  1  0  0  0  0
 19 18  2  0  0  0  0
 20 21  2  0  0  0  0
 20 19  1  0  0  0  0
 21 22  1  0  0  0  0
 22 17  2  0  0  0  0
 23 20  1  0  0  0  0
 24 23  1  0  0  0  0
 25 26  1  0  0  0  0
 25 21  1  0  0  0  0
M  END
>  <MODEL>
2

>  <REMARK>
 VINA RESULT:    -7.429      2.030      8.173
 INTER + INTRA:         -11.143
 INTER:                 -10.460
 INTRA:                  -0.683
 UNBOUND:                -0.675
  Name = CHEMBL4865678
  10 active torsions:
  status: ('A' for Active; 'I' for Inactive)
    1  A    between atoms: C_1  and  O_2
    2  A    between atoms: O_2  and  C_3
    3  A    between atoms: C_6  and  O_7
    4  A    between atoms: C_8  and  C_9
    5  A    between atoms: N_11  and  C_12
    6  A    between atoms: C_12  and  C_13
    7  A    between atoms: C_13  and  C_14
    8  A    between atoms: C_17  and  O_18
    9  A    between atoms: C_19  and  O_20
   10  A    between atoms: O_20  and  C_21
                            x       y       z     vdW  Elec       q    Type
                         _______ _______ _______ _____ _____    ______ ____

>  <TORSDO>
F 8

>  <SCORE>
-7.429

>  <RMSD_LB>
2.030

>  <RMSD_UB>
8.173

$$$$
CHEMBL4865678
 OpenBabel10162523543D

 26 27  0  0  0  0  0  0  0  0999 V2000
  137.2110  137.7750  155.2760 C   0  0  0  0  0  0  0  0  0  0  0  0
  137.1590  138.9200  155.7200 O   0  0  0  0  0  0  0  0  0  0  0  0
  138.0230  137.4350  154.2160 N   0  0  0  0  0  0  0  0  0  0  0  0
  138.0240  136.5060  153.8900 H   0  0  0  0  0  0  0  0  0  0  0  0
  134.7070  134.9380  155.4970 C   0  0  0  0  0  0  0  0  0  0  0  0
  134.7330  134.6180  156.8510 C   0  0  0  0  0  3  0  0  0  0  0  0
  135.5650  135.3230  157.7260 C   0  0  0  0  0  3  0  0  0  0  0  0
  136.3790  136.3540  157.2470 C   0  0  0  0  0  0  0  0  0  0  0  0
  136.3720  136.6920  155.8860 C   0  0  0  0  0  0  0  0  0  0  0  0
  135.5250  135.9710  155.0230 C   0  0  0  0  0  3  0  0  0  0  0  0
  134.5460  134.0720  153.2850 C   0  0  0  0  0  1  0  0  0  0  0  0
  133.9360  134.3280  154.5460 O   0  0  0  0  0  0  0  0  0  0  0  0
  137.1780  137.0210  158.1400 O   0  0  0  0  0  0  0  0  0  0  0  0
  137.3850  137.9240  158.0000 H   0  0  0  0  0  0  0  0  0  0  0  0
  138.8780  138.4140  153.5670 C   0  0  0  0  0  2  0  0  0  0  0  0
  140.3200  138.3730  154.0770 C   0  0  0  0  0  2  0  0  0  0  0  0
  141.2890  137.8850  153.0240 C   0  0  0  0  0  0  0  0  0  0  0  0
  140.8300  137.4870  151.7650 C   0  0  0  0  0  3  0  0  0  0  0  0
  141.7300  137.0520  150.7900 C   0  0  0  0  0  3  0  0  0  0  0  0
  143.1020  137.0110  151.0590 C   0  0  0  0  0  0  0  0  0  0  0  0
  143.5870  137.4050  152.3110 C   0  0  0  0  0  0  0  0  0  0  0  0
  142.6680  137.8430  153.2800 C   0  0  0  0  0  3  0  0  0  0  0  0
  143.9400  136.5790  150.0680 O   0  0  0  0  0  0  0  0  0  0  0  0
  144.6280  137.1350  149.7600 H   0  0  0  0  0  0  0  0  0  0  0  0
  144.8830  137.4260  152.7510 O   0  0  0  0  0  0  0  0  0  0  0  0
  145.2030  136.6940  153.9260 C   0  0  0  0  0  1  0  0  0  0  0  0
  1  2  2  0  0  0  0
  1  9  1  0  0  0  0
  3  1  1  0  0  0  0
  4  3  1  0  0  0  0
  5  6  1  0  0  0  0
  6  7  2  0  0  0  0
  8  7  1  0  0  0  0
  8 13  1  0  0  0  0
  9  8  2  0  0  0  0
 10  5  2  0  0  0  0
 10  9  1  0  0  0  0
 11 12  1  0  0  0  0
 12  5  1  0  0  0  0
 14 13  1  0  0  0  0
 15 16  1  0  0  0  0
 15  3  1  0  0  0  0
 17 22  1  0  0  0  0
 17 16  1  0  0  0  0
 18 17  2  0  0  0  0
 19 20  2  0  0  0  0
 19 18  1  0  0  0  0
 20 21  1  0  0  0  0
 21 25  1  0  0  0  0
 21 22  2  0  0  0  0
 23 20  1  0  0  0  0
 24 23  1  0  0  0  0
 25 26  1  0  0  0  0
M  END
>  <MODEL>
3

>  <REMARK>
 VINA RESULT:    -7.247      4.189      7.528
 INTER + INTRA:         -10.888
 INTER:                 -10.173
 INTRA:                  -0.715
 UNBOUND:                -0.675
  Name = CHEMBL4865678
  10 active torsions:
  status: ('A' for Active; 'I' for Inactive)
    1  A    between atoms: C_1  and  O_2
    2  A    between atoms: O_2  and  C_3
    3  A    between atoms: C_6  and  O_7
    4  A    between atoms: C_8  and  C_9
    5  A    between atoms: N_11  and  C_12
    6  A    between atoms: C_12  and  C_13
    7  A    between atoms: C_13  and  C_14
    8  A    between atoms: C_17  and  O_18
    9  A    between atoms: C_19  and  O_20
   10  A    between atoms: O_20  and  C_21
                            x       y       z     vdW  Elec       q    Type
                         _______ _______ _______ _____ _____    ______ ____

>  <TORSDO>
F 8

>  <SCORE>
-7.247

>  <RMSD_LB>
4.189

>  <RMSD_UB>
7.528

$$$$
CHEMBL4865678
 OpenBabel10162523543D

 26 27  0  0  0  0  0  0  0  0999 V2000
  135.1690  135.5210  154.3730 C   0  0  0  0  0  0  0  0  0  0  0  0
  134.0060  135.2570  154.0790 O   0  0  0  0  0  0  0  0  0  0  0  0
  136.1250  135.7910  153.4170 N   0  0  0  0  0  0  0  0  0  0  0  0
  137.0460  135.9890  153.7010 H   0  0  0  0  0  0  0  0  0  0  0  0
  137.1690  136.4640  157.4500 C   0  0  0  0  0  0  0  0  0  0  0  0
  136.5290  135.7490  158.4580 C   0  0  0  0  0  3  0  0  0  0  0  0
  135.4300  134.9380  158.1560 C   0  0  0  0  0  3  0  0  0  0  0  0
  134.9660  134.8400  156.8410 C   0  0  0  0  0  0  0  0  0  0  0  0
  135.5940  135.5540  155.8100 C   0  0  0  0  0  0  0  0  0  0  0  0
  136.6990  136.3640  156.1360 C   0  0  0  0  0  3  0  0  0  0  0  0
  138.8450  137.8200  156.4400 C   0  0  0  0  0  1  0  0  0  0  0  0
  138.2510  137.2850  157.6170 O   0  0  0  0  0  0  0  0  0  0  0  0
  133.8880  134.0310  156.5880 O   0  0  0  0  0  0  0  0  0  0  0  0
  133.9920  133.1000  156.5820 H   0  0  0  0  0  0  0  0  0  0  0  0
  135.8040  135.7910  152.0000 C   0  0  0  0  0  2  0  0  0  0  0  0
  135.9170  134.4040  151.3650 C   0  0  0  0  0  2  0  0  0  0  0  0
  134.8640  134.1670  150.3070 C   0  0  0  0  0  0  0  0  0  0  0  0
  133.5790  133.7480  150.6650 C   0  0  0  0  0  3  0  0  0  0  0  0
  132.6040  133.5460  149.6850 C   0  0  0  0  0  3  0  0  0  0  0  0
  132.8990  133.7620  148.3350 C   0  0  0  0  0  0  0  0  0  0  0  0
  134.1770  134.1820  147.9520 C   0  0  0  0  0  0  0  0  0  0  0  0
  135.1450  134.3850  148.9500 C   0  0  0  0  0  3  0  0  0  0  0  0
  131.9070  133.5510  147.4180 O   0  0  0  0  0  0  0  0  0  0  0  0
  132.0560  133.7420  146.5130 H   0  0  0  0  0  0  0  0  0  0  0  0
  134.6440  134.4370  146.6900 O   0  0  0  0  0  0  0  0  0  0  0  0
  134.8820  133.3320  145.8290 C   0  0  0  0  0  1  0  0  0  0  0  0
  1  9  1  0  0  0  0
  2  1  2  0  0  0  0
  3  4  1  0  0  0  0
  3  1  1  0  0  0  0
  5 12  1  0  0  0  0
  5  6  1  0  0  0  0
  7  6  2  0  0  0  0
  8  7  1  0  0  0  0
  9 10  1  0  0  0  0
  9  8  2  0  0  0  0
 10  5  2  0  0  0  0
 11 12  1  0  0  0  0
 13  8  1  0  0  0  0
 14 13  1  0  0  0  0
 15  3  1  0  0  0  0
 16 15  1  0  0  0  0
 17 18  1  0  0  0  0
 17 16  1  0  0  0  0
 19 18  2  0  0  0  0
 20 19  1  0  0  0  0
 21 20  2  0  0  0  0
 21 22  1  0  0  0  0
 22 17  2  0  0  0  0
 23 20  1  0  0  0  0
 24 23  1  0  0  0  0
 25 21  1  0  0  0  0
 26 25  1  0  0  0  0
M  END
>  <MODEL>
4

>  <REMARK>
 VINA RESULT:    -7.246      1.898      8.296
 INTER + INTRA:         -10.886
 INTER:                 -10.194
 INTRA:                  -0.692
 UNBOUND:                -0.675
  Name = CHEMBL4865678
  10 active torsions:
  status: ('A' for Active; 'I' for Inactive)
    1  A    between atoms: C_1  and  O_2
    2  A    between atoms: O_2  and  C_3
    3  A    between atoms: C_6  and  O_7
    4  A    between atoms: C_8  and  C_9
    5  A    between atoms: N_11  and  C_12
    6  A    between atoms: C_12  and  C_13
    7  A    between atoms: C_13  and  C_14
    8  A    between atoms: C_17  and  O_18
    9  A    between atoms: C_19  and  O_20
   10  A    between atoms: O_20  and  C_21
                            x       y       z     vdW  Elec       q    Type
                         _______ _______ _______ _____ _____    ______ ____

>  <TORSDO>
F 8

>  <SCORE>
-7.246

>  <RMSD_LB>
1.898

>  <RMSD_UB>
8.296

$$$$
CHEMBL4865678
 OpenBabel10162523543D

 26 27  0  0  0  0  0  0  0  0999 V2000
  134.7780  135.0270  154.6410 C   0  0  0  0  0  0  0  0  0  0  0  0
  133.5660  134.8270  154.6830 O   0  0  0  0  0  0  0  0  0  0  0  0
  135.5350  134.7160  153.5310 N   0  0  0  0  0  0  0  0  0  0  0  0
  136.5050  134.8870  153.5480 H   0  0  0  0  0  0  0  0  0  0  0  0
  135.7850  135.5860  158.2510 C   0  0  0  0  0  0  0  0  0  0  0  0
  136.7190  136.6140  158.1480 C   0  0  0  0  0  3  0  0  0  0  0  0
  137.0390  137.1520  156.8970 C   0  0  0  0  0  3  0  0  0  0  0  0
  136.4250  136.6610  155.7410 C   0  0  0  0  0  0  0  0  0  0  0  0
  135.4850  135.6240  155.8200 C   0  0  0  0  0  0  0  0  0  0  0  0
  135.1760  135.0980  157.0890 C   0  0  0  0  0  3  0  0  0  0  0  0
  134.3520  135.6240  160.1510 C   0  0  0  0  0  1  0  0  0  0  0  0
  135.3860  134.9830  159.4120 O   0  0  0  0  0  0  0  0  0  0  0  0
  136.7670  137.2180  154.5350 O   0  0  0  0  0  0  0  0  0  0  0  0
  137.6660  137.3940  154.3380 H   0  0  0  0  0  0  0  0  0  0  0  0
  134.9370  134.1440  152.3380 C   0  0  0  0  0  2  0  0  0  0  0  0
  135.6270  134.6000  151.0510 C   0  0  0  0  0  2  0  0  0  0  0  0
  134.8960  134.1370  149.8110 C   0  0  0  0  0  0  0  0  0  0  0  0
  133.5190  133.8960  149.8460 C   0  0  0  0  0  3  0  0  0  0  0  0
  132.8450  133.4840  148.6940 C   0  0  0  0  0  3  0  0  0  0  0  0
  133.5370  133.3090  147.4910 C   0  0  0  0  0  0  0  0  0  0  0  0
  134.9150  133.5450  147.4300 C   0  0  0  0  0  0  0  0  0  0  0  0
  135.5780  133.9620  148.5970 C   0  0  0  0  0  3  0  0  0  0  0  0
  132.8280  132.9060  146.3930 O   0  0  0  0  0  0  0  0  0  0  0  0
  133.2660  132.7700  145.5760 H   0  0  0  0  0  0  0  0  0  0  0  0
  135.7500  133.4230  146.3520 O   0  0  0  0  0  0  0  0  0  0  0  0
  136.3870  132.1710  146.1370 C   0  0  0  0  0  1  0  0  0  0  0  0
  1  2  2  0  0  0  0
  1  9  1  0  0  0  0
  3  4  1  0  0  0  0
  3  1  1  0  0  0  0
  5 12  1  0  0  0  0
  6  5  1  0  0  0  0
  7  6  2  0  0  0  0
  8  9  2  0  0  0  0
  8  7  1  0  0  0  0
  9 10  1  0  0  0  0
 10  5  2  0  0  0  0
 12 11  1  0  0  0  0
 13  8  1  0  0  0  0
 14 13  1  0  0  0  0
 15  3  1  0  0  0  0
 16 15  1  0  0  0  0
 17 18  1  0  0  0  0
 17 16  1  0  0  0  0
 19 18  2  0  0  0  0
 20 19  1  0  0  0  0
 21 20  2  0  0  0  0
 21 22  1  0  0  0  0
 22 17  2  0  0  0  0
 23 20  1  0  0  0  0
 24 23  1  0  0  0  0
 25 21  1  0  0  0  0
 26 25  1  0  0  0  0
M  END
>  <MODEL>
5

>  <REMARK>
 VINA RESULT:    -7.128      1.862      8.877
 INTER + INTRA:         -10.720
 INTER:                 -10.089
 INTRA:                  -0.631
 UNBOUND:                -0.675
  Name = CHEMBL4865678
  10 active torsions:
  status: ('A' for Active; 'I' for Inactive)
    1  A    between atoms: C_1  and  O_2
    2  A    between atoms: O_2  and  C_3
    3  A    between atoms: C_6  and  O_7
    4  A    between atoms: C_8  and  C_9
    5  A    between atoms: N_11  and  C_12
    6  A    between atoms: C_12  and  C_13
    7  A    between atoms: C_13  and  C_14
    8  A    between atoms: C_17  and  O_18
    9  A    between atoms: C_19  and  O_20
   10  A    between atoms: O_20  and  C_21
                            x       y       z     vdW  Elec       q    Type
                         _______ _______ _______ _____ _____    ______ ____

>  <TORSDO>
F 8

>  <SCORE>
-7.128

>  <RMSD_LB>
1.862

>  <RMSD_UB>
8.877

$$$$
CHEMBL4865678
 OpenBabel10162523543D

 26 27  0  0  0  0  0  0  0  0999 V2000
  137.5010  138.1810  155.8240 C   0  0  0  0  0  0  0  0  0  0  0  0
  136.9220  139.2240  155.5260 O   0  0  0  0  0  0  0  0  0  0  0  0
  138.6830  137.8010  155.2250 N   0  0  0  0  0  0  0  0  0  0  0  0
  139.1050  136.9520  155.4920 H   0  0  0  0  0  0  0  0  0  0  0  0
  136.3910  136.9720  159.2400 C   0  0  0  0  0  0  0  0  0  0  0  0
  135.8760  135.7090  158.9600 C   0  0  0  0  0  3  0  0  0  0  0  0
  135.8830  135.2210  157.6500 C   0  0  0  0  0  3  0  0  0  0  0  0
  136.4050  135.9970  156.6110 C   0  0  0  0  0  0  0  0  0  0  0  0
  136.9260  137.2730  156.8680 C   0  0  0  0  0  0  0  0  0  0  0  0
  136.9110  137.7450  158.1950 C   0  0  0  0  0  3  0  0  0  0  0  0
  136.7810  138.9390  160.5220 C   0  0  0  0  0  1  0  0  0  0  0  0
  136.4450  137.5570  160.4750 O   0  0  0  0  0  0  0  0  0  0  0  0
  136.3930  135.4780  155.3410 O   0  0  0  0  0  0  0  0  0  0  0  0
  135.7320  134.8630  155.0920 H   0  0  0  0  0  0  0  0  0  0  0  0
  139.3210  138.6210  154.2110 C   0  0  0  0  0  2  0  0  0  0  0  0
  139.3960  137.9290  152.8480 C   0  0  0  0  0  2  0  0  0  0  0  0
  140.8200  137.6550  152.4200 C   0  0  0  0  0  0  0  0  0  0  0  0
  141.1040  137.2570  151.1110 C   0  0  0  0  0  3  0  0  0  0  0  0
  142.4230  137.0200  150.7150 C   0  0  0  0  0  3  0  0  0  0  0  0
  143.4760  137.1800  151.6220 C   0  0  0  0  0  0  0  0  0  0  0  0
  143.2170  137.5790  152.9380 C   0  0  0  0  0  0  0  0  0  0  0  0
  141.8850  137.8160  153.3190 C   0  0  0  0  0  3  0  0  0  0  0  0
  144.7470  136.9380  151.1810 O   0  0  0  0  0  0  0  0  0  0  0  0
  145.2340  136.2160  151.5280 H   0  0  0  0  0  0  0  0  0  0  0  0
  144.1110  137.7800  153.9550 O   0  0  0  0  0  0  0  0  0  0  0  0
  144.7960  139.0240  154.0080 C   0  0  0  0  0  1  0  0  0  0  0  0
  1  9  1  0  0  0  0
  2  1  2  0  0  0  0
  3  4  1  0  0  0  0
  3  1  1  0  0  0  0
  5 12  1  0  0  0  0
  6  5  1  0  0  0  0
  7  6  2  0  0  0  0
  8  9  2  0  0  0  0
  8  7  1  0  0  0  0
  9 10  1  0  0  0  0
 10  5  2  0  0  0  0
 12 11  1  0  0  0  0
 13  8  1  0  0  0  0
 14 13  1  0  0  0  0
 15  3  1  0  0  0  0
 16 15  1  0  0  0  0
 17 16  1  0  0  0  0
 17 22  1  0  0  0  0
 18 17  2  0  0  0  0
 19 18  1  0  0  0  0
 19 20  2  0  0  0  0
 20 21  1  0  0  0  0
 21 22  2  0  0  0  0
 21 25  1  0  0  0  0
 23 24  1  0  0  0  0
 23 20  1  0  0  0  0
 25 26  1  0  0  0  0
M  END
>  <MODEL>
6

>  <REMARK>
 VINA RESULT:    -7.112      5.043      8.594
 INTER + INTRA:         -10.698
 INTER:                 -10.023
 INTRA:                  -0.675
 UNBOUND:                -0.675
  Name = CHEMBL4865678
  10 active torsions:
  status: ('A' for Active; 'I' for Inactive)
    1  A    between atoms: C_1  and  O_2
    2  A    between atoms: O_2  and  C_3
    3  A    between atoms: C_6  and  O_7
    4  A    between atoms: C_8  and  C_9
    5  A    between atoms: N_11  and  C_12
    6  A    between atoms: C_12  and  C_13
    7  A    between atoms: C_13  and  C_14
    8  A    between atoms: C_17  and  O_18
    9  A    between atoms: C_19  and  O_20
   10  A    between atoms: O_20  and  C_21
                            x       y       z     vdW  Elec       q    Type
                         _______ _______ _______ _____ _____    ______ ____

>  <TORSDO>
F 8

>  <SCORE>
-7.112

>  <RMSD_LB>
5.043

>  <RMSD_UB>
8.594

$$$$
CHEMBL4865678
 OpenBabel10162523543D

 26 27  0  0  0  0  0  0  0  0999 V2000
  136.8580  136.8820  151.5290 C   0  0  0  0  0  0  0  0  0  0  0  0
  136.6270  137.0110  150.3290 O   0  0  0  0  0  0  0  0  0  0  0  0
  135.9410  136.3300  152.3980 N   0  0  0  0  0  0  0  0  0  0  0  0
  136.1680  136.2560  153.3530 H   0  0  0  0  0  0  0  0  0  0  0  0
  139.3590  138.1740  154.0660 C   0  0  0  0  0  0  0  0  0  0  0  0
  140.5430  138.2050  153.3350 C   0  0  0  0  0  3  0  0  0  0  0  0
  140.5510  137.8100  151.9930 C   0  0  0  0  0  3  0  0  0  0  0  0
  139.3730  137.3780  151.3780 C   0  0  0  0  0  0  0  0  0  0  0  0
  138.1690  137.3340  152.0970 C   0  0  0  0  0  0  0  0  0  0  0  0
  138.1820  137.7390  153.4450 C   0  0  0  0  0  3  0  0  0  0  0  0
  138.0510  138.0900  156.0540 C   0  0  0  0  0  1  0  0  0  0  0  0
  139.2200  138.5390  155.3780 O   0  0  0  0  0  0  0  0  0  0  0  0
  139.4260  137.0000  150.0600 O   0  0  0  0  0  0  0  0  0  0  0  0
  138.8870  136.3000  149.7510 H   0  0  0  0  0  0  0  0  0  0  0  0
  134.6480  135.8550  151.9380 C   0  0  0  0  0  2  0  0  0  0  0  0
  134.6300  134.3490  151.6680 C   0  0  0  0  0  2  0  0  0  0  0  0
  134.2450  134.0240  150.2440 C   0  0  0  0  0  0  0  0  0  0  0  0
  134.3260  132.7120  149.7670 C   0  0  0  0  0  3  0  0  0  0  0  0
  133.9540  132.4140  148.4540 C   0  0  0  0  0  3  0  0  0  0  0  0
  133.4940  133.4220  147.6000 C   0  0  0  0  0  0  0  0  0  0  0  0
  133.4020  134.7420  148.0540 C   0  0  0  0  0  0  0  0  0  0  0  0
  133.7770  135.0250  149.3780 C   0  0  0  0  0  3  0  0  0  0  0  0
  133.1410  133.0740  146.3250 O   0  0  0  0  0  0  0  0  0  0  0  0
  132.3900  133.4650  145.9230 H   0  0  0  0  0  0  0  0  0  0  0  0
  132.9830  135.8490  147.3650 O   0  0  0  0  0  0  0  0  0  0  0  0
  132.6920  137.0270  148.1050 C   0  0  0  0  0  1  0  0  0  0  0  0
  1  9  1  0  0  0  0
  1  3  1  0  0  0  0
  2  1  2  0  0  0  0
  3  4  1  0  0  0  0
  5 12  1  0  0  0  0
  6  5  2  0  0  0  0
  7  6  1  0  0  0  0
  8  7  2  0  0  0  0
  8  9  1  0  0  0  0
  9 10  2  0  0  0  0
 10  5  1  0  0  0  0
 12 11  1  0  0  0  0
 13  8  1  0  0  0  0
 14 13  1  0  0  0  0
 15  3  1  0  0  0  0
 16 15  1  0  0  0  0
 17 16  1  0  0  0  0
 18 17  1  0  0  0  0
 19 18  2  0  0  0  0
 20 21  2  0  0  0  0
 20 19  1  0  0  0  0
 21 22  1  0  0  0  0
 22 17  2  0  0  0  0
 23 20  1  0  0  0  0
 24 23  1  0  0  0  0
 25 21  1  0  0  0  0
 25 26  1  0  0  0  0
M  END
>  <MODEL>
7

>  <REMARK>
 VINA RESULT:    -7.097      2.590      8.166
 INTER + INTRA:         -10.676
 INTER:                  -9.780
 INTRA:                  -0.896
 UNBOUND:                -0.675
  Name = CHEMBL4865678
  10 active torsions:
  status: ('A' for Active; 'I' for Inactive)
    1  A    between atoms: C_1  and  O_2
    2  A    between atoms: O_2  and  C_3
    3  A    between atoms: C_6  and  O_7
    4  A    between atoms: C_8  and  C_9
    5  A    between atoms: N_11  and  C_12
    6  A    between atoms: C_12  and  C_13
    7  A    between atoms: C_13  and  C_14
    8  A    between atoms: C_17  and  O_18
    9  A    between atoms: C_19  and  O_20
   10  A    between atoms: O_20  and  C_21
                            x       y       z     vdW  Elec       q    Type
                         _______ _______ _______ _____ _____    ______ ____

>  <TORSDO>
F 8

>  <SCORE>
-7.097

>  <RMSD_LB>
2.590

>  <RMSD_UB>
8.166

$$$$
CHEMBL4865678
 OpenBabel10162523543D

 26 27  0  0  0  0  0  0  0  0999 V2000
  144.9620  139.6070  149.7740 C   0  0  0  0  0  0  0  0  0  0  0  0
  145.9220  138.8860  150.0400 O   0  0  0  0  0  0  0  0  0  0  0  0
  145.1160  140.8620  149.2250 N   0  0  0  0  0  0  0  0  0  0  0  0
  144.3170  141.4050  149.0370 H   0  0  0  0  0  0  0  0  0  0  0  0
  141.1800  139.6850  150.0060 C   0  0  0  0  0  0  0  0  0  0  0  0
  140.8810  138.4160  150.4920 C   0  0  0  0  0  3  0  0  0  0  0  0
  141.9080  137.5050  150.7600 C   0  0  0  0  0  3  0  0  0  0  0  0
  143.2420  137.8610  150.5400 C   0  0  0  0  0  0  0  0  0  0  0  0
  143.5660  139.1330  150.0480 C   0  0  0  0  0  0  0  0  0  0  0  0
  142.5170  140.0360  149.7870 C   0  0  0  0  0  3  0  0  0  0  0  0
  138.8950  140.2960  149.7380 C   0  0  0  0  0  1  0  0  0  0  0  0
  140.2700  140.6630  149.7110 O   0  0  0  0  0  0  0  0  0  0  0  0
  144.2170  136.9380  150.8180 O   0  0  0  0  0  0  0  0  0  0  0  0
  144.9100  137.1520  151.4110 H   0  0  0  0  0  0  0  0  0  0  0  0
  146.4280  141.4010  148.9160 C   0  0  0  0  0  2  0  0  0  0  0  0
  146.7720  142.6400  149.7470 C   0  0  0  0  0  2  0  0  0  0  0  0
  147.3170  142.2850  151.1110 C   0  0  0  0  0  0  0  0  0  0  0  0
  148.6940  142.2860  151.3490 C   0  0  0  0  0  3  0  0  0  0  0  0
  149.1920  141.9730  152.6160 C   0  0  0  0  0  3  0  0  0  0  0  0
  148.3200  141.6560  153.6630 C   0  0  0  0  0  0  0  0  0  0  0  0
  146.9370  141.6490  153.4510 C   0  0  0  0  0  0  0  0  0  0  0  0
  146.4520  141.9700  152.1710 C   0  0  0  0  0  3  0  0  0  0  0  0
  148.8610  141.3600  154.8840 O   0  0  0  0  0  0  0  0  0  0  0  0
  149.7860  141.4250  155.0150 H   0  0  0  0  0  0  0  0  0  0  0  0
  145.9420  141.3620  154.3460 O   0  0  0  0  0  0  0  0  0  0  0  0
  145.3310  140.0810  154.2800 C   0  0  0  0  0  1  0  0  0  0  0  0
  1  2  2  0  0  0  0
  1  9  1  0  0  0  0
  3  1  1  0  0  0  0
  4  3  1  0  0  0  0
  5  6  1  0  0  0  0
  6  7  2  0  0  0  0
  8  7  1  0  0  0  0
  8 13  1  0  0  0  0
  9  8  2  0  0  0  0
 10  5  2  0  0  0  0
 10  9  1  0  0  0  0
 12 11  1  0  0  0  0
 12  5  1  0  0  0  0
 13 14  1  0  0  0  0
 15  3  1  0  0  0  0
 15 16  1  0  0  0  0
 16 17  1  0  0  0  0
 17 18  2  0  0  0  0
 17 22  1  0  0  0  0
 18 19  1  0  0  0  0
 19 20  2  0  0  0  0
 20 23  1  0  0  0  0
 21 20  1  0  0  0  0
 21 25  1  0  0  0  0
 22 21  2  0  0  0  0
 23 24  1  0  0  0  0
 26 25  1  0  0  0  0
M  END
>  <MODEL>
8

>  <REMARK>
 VINA RESULT:    -7.088      9.073     11.682
 INTER + INTRA:         -10.664
 INTER:                  -9.736
 INTRA:                  -0.928
 UNBOUND:                -0.675
  Name = CHEMBL4865678
  10 active torsions:
  status: ('A' for Active; 'I' for Inactive)
    1  A    between atoms: C_1  and  O_2
    2  A    between atoms: O_2  and  C_3
    3  A    between atoms: C_6  and  O_7
    4  A    between atoms: C_8  and  C_9
    5  A    between atoms: N_11  and  C_12
    6  A    between atoms: C_12  and  C_13
    7  A    between atoms: C_13  and  C_14
    8  A    between atoms: C_17  and  O_18
    9  A    between atoms: C_19  and  O_20
   10  A    between atoms: O_20  and  C_21
                            x       y       z     vdW  Elec       q    Type
                         _______ _______ _______ _____ _____    ______ ____

>  <TORSDO>
F 8

>  <SCORE>
-7.088

>  <RMSD_LB>
9.073

>  <RMSD_UB>
11.682

$$$$
CHEMBL4865678
 OpenBabel10162523543D

 26 27  0  0  0  0  0  0  0  0999 V2000
  138.2290  138.2230  155.4030 C   0  0  0  0  0  0  0  0  0  0  0  0
  137.7300  139.0930  154.6910 O   0  0  0  0  0  0  0  0  0  0  0  0
  139.5930  138.0490  155.5020 N   0  0  0  0  0  0  0  0  0  0  0  0
  139.9450  137.3330  156.0790 H   0  0  0  0  0  0  0  0  0  0  0  0
  135.6570  135.5380  156.1320 C   0  0  0  0  0  0  0  0  0  0  0  0
  135.6380  135.5070  157.5240 C   0  0  0  0  0  3  0  0  0  0  0  0
  136.4630  136.3660  158.2570 C   0  0  0  0  0  3  0  0  0  0  0  0
  137.3130  137.2600  157.6000 C   0  0  0  0  0  0  0  0  0  0  0  0
  137.3500  137.3060  156.1990 C   0  0  0  0  0  0  0  0  0  0  0  0
  136.5100  136.4340  155.4790 C   0  0  0  0  0  3  0  0  0  0  0  0
  133.9140  135.4130  154.5150 C   0  0  0  0  0  1  0  0  0  0  0  0
  134.8970  134.7550  155.3060 O   0  0  0  0  0  0  0  0  0  0  0  0
  138.1030  138.0850  158.3580 O   0  0  0  0  0  0  0  0  0  0  0  0
  138.1590  138.9980  158.1540 H   0  0  0  0  0  0  0  0  0  0  0  0
  140.5230  138.8960  154.7760 C   0  0  0  0  0  2  0  0  0  0  0  0
  141.7250  138.1240  154.2280 C   0  0  0  0  0  2  0  0  0  0  0  0
  141.5440  137.7290  152.7800 C   0  0  0  0  0  0  0  0  0  0  0  0
  142.6440  137.3510  152.0040 C   0  0  0  0  0  3  0  0  0  0  0  0
  142.4700  136.9720  150.6710 C   0  0  0  0  0  3  0  0  0  0  0  0
  141.1950  136.9630  150.0960 C   0  0  0  0  0  0  0  0  0  0  0  0
  140.0780  137.3360  150.8520 C   0  0  0  0  0  0  0  0  0  0  0  0
  140.2700  137.7120  152.1930 C   0  0  0  0  0  3  0  0  0  0  0  0
  141.0810  136.5810  148.7880 O   0  0  0  0  0  0  0  0  0  0  0  0
  140.3250  136.1080  148.5010 H   0  0  0  0  0  0  0  0  0  0  0  0
  138.7680  137.3920  150.4600 O   0  0  0  0  0  0  0  0  0  0  0  0
  137.7660  137.3530  151.4670 C   0  0  0  0  0  1  0  0  0  0  0  0
  1  3  1  0  0  0  0
  1  9  1  0  0  0  0
  2  1  2  0  0  0  0
  3  4  1  0  0  0  0
  5  6  1  0  0  0  0
  6  7  2  0  0  0  0
  8  7  1  0  0  0  0
  8 13  1  0  0  0  0
  9  8  2  0  0  0  0
 10  5  2  0  0  0  0
 10  9  1  0  0  0  0
 11 12  1  0  0  0  0
 12  5  1  0  0  0  0
 14 13  1  0  0  0  0
 15  3  1  0  0  0  0
 16 15  1  0  0  0  0
 17 16  1  0  0  0  0
 18 17  2  0  0  0  0
 19 18  1  0  0  0  0
 20 19  2  0  0  0  0
 20 21  1  0  0  0  0
 21 22  2  0  0  0  0
 22 17  1  0  0  0  0
 23 20  1  0  0  0  0
 24 23  1  0  0  0  0
 25 21  1  0  0  0  0
 25 26  1  0  0  0  0
M  END
>  <MODEL>
9

>  <REMARK>
 VINA RESULT:    -7.066      3.675      7.835
 INTER + INTRA:         -10.633
 INTER:                  -9.774
 INTRA:                  -0.859
 UNBOUND:                -0.675
  Name = CHEMBL4865678
  10 active torsions:
  status: ('A' for Active; 'I' for Inactive)
    1  A    between atoms: C_1  and  O_2
    2  A    between atoms: O_2  and  C_3
    3  A    between atoms: C_6  and  O_7
    4  A    between atoms: C_8  and  C_9
    5  A    between atoms: N_11  and  C_12
    6  A    between atoms: C_12  and  C_13
    7  A    between atoms: C_13  and  C_14
    8  A    between atoms: C_17  and  O_18
    9  A    between atoms: C_19  and  O_20
   10  A    between atoms: O_20  and  C_21
                            x       y       z     vdW  Elec       q    Type
                         _______ _______ _______ _____ _____    ______ ____

>  <TORSDO>
F 8

>  <SCORE>
-7.066

>  <RMSD_LB>
3.675

>  <RMSD_UB>
7.835

$$$$
