CHEMBL25894
 OpenBabel10172500213D

 15 15  0  0  0  0  0  0  0  0999 V2000
  134.7990  134.7930  155.3400 C   0  0  0  0  0  0  0  0  0  0  0  0
  135.8290  135.6100  155.8220 C   0  0  0  0  0  3  0  0  0  0  0  0
  136.6870  136.3020  154.9510 C   0  0  0  0  0  0  0  0  0  0  0  0
  136.4610  136.1960  153.5700 C   0  0  0  0  0  3  0  0  0  0  0  0
  135.4330  135.3890  153.0730 C   0  0  0  0  0  3  0  0  0  0  0  0
  134.6140  134.6900  153.9570 C   0  0  0  0  0  0  0  0  0  0  0  0
  133.8160  134.4780  157.4890 C   0  0  0  0  0  1  0  0  0  0  0  0
  133.9370  134.0780  156.1300 O   0  0  0  0  0  0  0  0  0  0  0  0
  133.6100  133.8950  153.4730 O   0  0  0  0  0  0  0  0  0  0  0  0
  132.7670  134.2620  153.2920 H   0  0  0  0  0  0  0  0  0  0  0  0
  137.7880  137.2130  155.4560 C   0  0  0  0  0  2  0  0  0  0  0  0
  138.2200  136.9680  156.9040 C   0  0  0  0  0  2  0  0  0  0  0  0
  137.5320  137.9000  157.8830 C   0  0  0  0  0  0  0  0  0  0  0  0
  138.0460  137.8890  159.3000 C   0  0  0  0  0  1  0  0  0  0  0  0
  136.5930  138.6260  157.5610 O   0  0  0  0  0  0  0  0  0  0  0  0
  1  2  1  0  0  0  0
  1  8  1  0  0  0  0
  3 11  1  0  0  0  0
  3  2  2  0  0  0  0
  4  3  1  0  0  0  0
  5  4  2  0  0  0  0
  5  6  1  0  0  0  0
  6  1  2  0  0  0  0
  8  7  1  0  0  0  0
  9  6  1  0  0  0  0
 10  9  1  0  0  0  0
 11 12  1  0  0  0  0
 12 13  1  0  0  0  0
 13 14  1  0  0  0  0
 15 13  2  0  0  0  0
M  END
>  <MODEL>
1

>  <REMARK>
 VINA RESULT:    -5.462      0.000      0.000
 INTER + INTRA:          -7.250
 INTER:                  -7.029
 INTRA:                  -0.221
 UNBOUND:                -0.351
  Name = CHEMBL25894
  7 active torsions:
  status: ('A' for Active; 'I' for Inactive)
    1  A    between atoms: C_1  and  O_2
    2  A    between atoms: O_2  and  C_3
    3  A    between atoms: C_5  and  C_6
    4  A    between atoms: C_6  and  C_7
    5  A    between atoms: C_7  and  C_8
    6  A    between atoms: C_8  and  C_9
    7  A    between atoms: C_13  and  O_14
                            x       y       z     vdW  Elec       q    Type
                         _______ _______ _______ _____ _____    ______ ____

>  <TORSDO>
F 5

>  <SCORE>
-5.462

>  <RMSD_LB>
0.000

>  <RMSD_UB>
0.000

$$$$
CHEMBL25894
 OpenBabel10172500213D

 15 15  0  0  0  0  0  0  0  0999 V2000
  146.5400  140.2910  154.1390 C   0  0  0  0  0  0  0  0  0  0  0  0
  145.8310  140.9550  153.1310 C   0  0  0  0  0  3  0  0  0  0  0  0
  146.4370  141.9430  152.3360 C   0  0  0  0  0  0  0  0  0  0  0  0
  147.7960  142.2240  152.5430 C   0  0  0  0  0  3  0  0  0  0  0  0
  148.5190  141.5650  153.5420 C   0  0  0  0  0  3  0  0  0  0  0  0
  147.8880  140.6090  154.3350 C   0  0  0  0  0  0  0  0  0  0  0  0
  145.7300  138.0620  154.3800 C   0  0  0  0  0  1  0  0  0  0  0  0
  146.0100  139.3290  154.9600 O   0  0  0  0  0  0  0  0  0  0  0  0
  148.5920  139.9660  155.3180 O   0  0  0  0  0  0  0  0  0  0  0  0
  148.1710  139.3210  155.8510 H   0  0  0  0  0  0  0  0  0  0  0  0
  145.6930  142.6530  151.2230 C   0  0  0  0  0  2  0  0  0  0  0  0
  146.1100  142.2510  149.8050 C   0  0  0  0  0  2  0  0  0  0  0  0
  145.6620  140.8480  149.4410 C   0  0  0  0  0  0  0  0  0  0  0  0
  146.7350  139.8970  148.9760 C   0  0  0  0  0  1  0  0  0  0  0  0
  144.4870  140.4890  149.5010 O   0  0  0  0  0  0  0  0  0  0  0  0
  1  6  1  0  0  0  0
  1  8  1  0  0  0  0
  2  1  2  0  0  0  0
  3  4  2  0  0  0  0
  3  2  1  0  0  0  0
  4  5  1  0  0  0  0
  5  6  2  0  0  0  0
  6  9  1  0  0  0  0
  7  8  1  0  0  0  0
  9 10  1  0  0  0  0
 11  3  1  0  0  0  0
 12 11  1  0  0  0  0
 13 15  2  0  0  0  0
 13 12  1  0  0  0  0
 14 13  1  0  0  0  0
M  END
>  <MODEL>
2

>  <REMARK>
 VINA RESULT:    -5.320     10.631     12.938
 INTER + INTRA:          -7.070
 INTER:                  -6.618
 INTRA:                  -0.452
 UNBOUND:                -0.351
  Name = CHEMBL25894
  7 active torsions:
  status: ('A' for Active; 'I' for Inactive)
    1  A    between atoms: C_1  and  O_2
    2  A    between atoms: O_2  and  C_3
    3  A    between atoms: C_5  and  C_6
    4  A    between atoms: C_6  and  C_7
    5  A    between atoms: C_7  and  C_8
    6  A    between atoms: C_8  and  C_9
    7  A    between atoms: C_13  and  O_14
                            x       y       z     vdW  Elec       q    Type
                         _______ _______ _______ _____ _____    ______ ____

>  <TORSDO>
F 5

>  <SCORE>
-5.320

>  <RMSD_LB>
10.631

>  <RMSD_UB>
12.938

$$$$
CHEMBL25894
 OpenBabel10172500213D

 15 15  0  0  0  0  0  0  0  0999 V2000
  133.2110  134.7530  149.3510 C   0  0  0  0  0  0  0  0  0  0  0  0
  133.4550  134.7090  147.9730 C   0  0  0  0  0  3  0  0  0  0  0  0
  134.0270  133.5800  147.3630 C   0  0  0  0  0  0  0  0  0  0  0  0
  134.3090  132.4620  148.1630 C   0  0  0  0  0  3  0  0  0  0  0  0
  134.0640  132.4860  149.5390 C   0  0  0  0  0  3  0  0  0  0  0  0
  133.5240  133.6290  150.1250 C   0  0  0  0  0  0  0  0  0  0  0  0
  132.5360  137.0380  149.2870 C   0  0  0  0  0  1  0  0  0  0  0  0
  132.6710  135.8240  150.0140 O   0  0  0  0  0  0  0  0  0  0  0  0
  133.2890  133.6580  151.4730 O   0  0  0  0  0  0  0  0  0  0  0  0
  133.7590  134.2580  152.0190 H   0  0  0  0  0  0  0  0  0  0  0  0
  134.2730  133.5060  145.8690 C   0  0  0  0  0  2  0  0  0  0  0  0
  135.6690  133.0260  145.4640 C   0  0  0  0  0  2  0  0  0  0  0  0
  135.6370  132.0530  144.3010 C   0  0  0  0  0  0  0  0  0  0  0  0
  136.9620  131.7230  143.6610 C   0  0  0  0  0  1  0  0  0  0  0  0
  134.5940  131.5590  143.8770 O   0  0  0  0  0  0  0  0  0  0  0  0
  1  8  1  0  0  0  0
  1  6  1  0  0  0  0
  2  1  2  0  0  0  0
  3  2  1  0  0  0  0
  3  4  2  0  0  0  0
  4  5  1  0  0  0  0
  5  6  2  0  0  0  0
  6  9  1  0  0  0  0
  7  8  1  0  0  0  0
  9 10  1  0  0  0  0
 11  3  1  0  0  0  0
 12 11  1  0  0  0  0
 13 12  1  0  0  0  0
 14 13  1  0  0  0  0
 15 13  2  0  0  0  0
M  END
>  <MODEL>
3

>  <REMARK>
 VINA RESULT:    -5.304      6.979     10.021
 INTER + INTRA:          -7.050
 INTER:                  -6.816
 INTRA:                  -0.234
 UNBOUND:                -0.351
  Name = CHEMBL25894
  7 active torsions:
  status: ('A' for Active; 'I' for Inactive)
    1  A    between atoms: C_1  and  O_2
    2  A    between atoms: O_2  and  C_3
    3  A    between atoms: C_5  and  C_6
    4  A    between atoms: C_6  and  C_7
    5  A    between atoms: C_7  and  C_8
    6  A    between atoms: C_8  and  C_9
    7  A    between atoms: C_13  and  O_14
                            x       y       z     vdW  Elec       q    Type
                         _______ _______ _______ _____ _____    ______ ____

>  <TORSDO>
F 5

>  <SCORE>
-5.304

>  <RMSD_LB>
6.979

>  <RMSD_UB>
10.021

$$$$
CHEMBL25894
 OpenBabel10172500213D

 15 15  0  0  0  0  0  0  0  0999 V2000
  134.1530  134.7510  148.5830 C   0  0  0  0  0  0  0  0  0  0  0  0
  135.0280  134.8450  149.6720 C   0  0  0  0  0  3  0  0  0  0  0  0
  134.7620  134.1910  150.8870 C   0  0  0  0  0  0  0  0  0  0  0  0
  133.6120  133.3930  150.9760 C   0  0  0  0  0  3  0  0  0  0  0  0
  132.7310  133.2830  149.8950 C   0  0  0  0  0  3  0  0  0  0  0  0
  133.0020  133.9650  148.7110 C   0  0  0  0  0  0  0  0  0  0  0  0
  134.3370  136.7940  147.3680 C   0  0  0  0  0  1  0  0  0  0  0  0
  134.3410  135.3730  147.3760 O   0  0  0  0  0  0  0  0  0  0  0  0
  132.1390  133.8640  147.6530 O   0  0  0  0  0  0  0  0  0  0  0  0
  132.4040  133.4180  146.8730 H   0  0  0  0  0  0  0  0  0  0  0  0
  135.7120  134.2600  152.0660 C   0  0  0  0  0  2  0  0  0  0  0  0
  135.9200  135.6590  152.6520 C   0  0  0  0  0  2  0  0  0  0  0  0
  135.4840  135.7550  154.1020 C   0  0  0  0  0  0  0  0  0  0  0  0
  134.7630  134.5600  154.6700 C   0  0  0  0  0  1  0  0  0  0  0  0
  135.6870  136.7530  154.7920 O   0  0  0  0  0  0  0  0  0  0  0  0
  1  6  2  0  0  0  0
  1  2  1  0  0  0  0
  2  3  2  0  0  0  0
  3  4  1  0  0  0  0
  3 11  1  0  0  0  0
  5  4  2  0  0  0  0
  6  5  1  0  0  0  0
  7  8  1  0  0  0  0
  8  1  1  0  0  0  0
  9  6  1  0  0  0  0
 10  9  1  0  0  0  0
 11 12  1  0  0  0  0
 12 13  1  0  0  0  0
 13 14  1  0  0  0  0
 13 15  2  0  0  0  0
M  END
>  <MODEL>
4

>  <REMARK>
 VINA RESULT:    -5.165      4.048      6.185
 INTER + INTRA:          -6.875
 INTER:                  -6.531
 INTRA:                  -0.344
 UNBOUND:                -0.351
  Name = CHEMBL25894
  7 active torsions:
  status: ('A' for Active; 'I' for Inactive)
    1  A    between atoms: C_1  and  O_2
    2  A    between atoms: O_2  and  C_3
    3  A    between atoms: C_5  and  C_6
    4  A    between atoms: C_6  and  C_7
    5  A    between atoms: C_7  and  C_8
    6  A    between atoms: C_8  and  C_9
    7  A    between atoms: C_13  and  O_14
                            x       y       z     vdW  Elec       q    Type
                         _______ _______ _______ _____ _____    ______ ____

>  <TORSDO>
F 5

>  <SCORE>
-5.165

>  <RMSD_LB>
4.048

>  <RMSD_UB>
6.185

$$$$
CHEMBL25894
 OpenBabel10172500213D

 15 15  0  0  0  0  0  0  0  0999 V2000
  135.0920  134.0520  147.7780 C   0  0  0  0  0  0  0  0  0  0  0  0
  135.0640  134.0360  149.1780 C   0  0  0  0  0  3  0  0  0  0  0  0
  133.8780  133.7850  149.8870 C   0  0  0  0  0  0  0  0  0  0  0  0
  132.7130  133.5010  149.1570 C   0  0  0  0  0  3  0  0  0  0  0  0
  132.7250  133.5060  147.7600 C   0  0  0  0  0  3  0  0  0  0  0  0
  133.9080  133.7870  147.0800 C   0  0  0  0  0  0  0  0  0  0  0  0
  137.2230  133.3090  147.0110 C   0  0  0  0  0  1  0  0  0  0  0  0
  136.2070  134.3030  147.0220 O   0  0  0  0  0  0  0  0  0  0  0  0
  133.9210  133.7980  145.7100 O   0  0  0  0  0  0  0  0  0  0  0  0
  133.5660  133.0750  145.2310 H   0  0  0  0  0  0  0  0  0  0  0  0
  133.8360  133.7370  151.4010 C   0  0  0  0  0  2  0  0  0  0  0  0
  133.4190  135.0440  152.0810 C   0  0  0  0  0  2  0  0  0  0  0  0
  134.4320  135.5180  153.1060 C   0  0  0  0  0  0  0  0  0  0  0  0
  135.7760  134.8350  153.0910 C   0  0  0  0  0  1  0  0  0  0  0  0
  134.1860  136.4020  153.9240 O   0  0  0  0  0  0  0  0  0  0  0  0
  1  2  1  0  0  0  0
  2  3  2  0  0  0  0
  3 11  1  0  0  0  0
  4  3  1  0  0  0  0
  5  4  2  0  0  0  0
  6  5  1  0  0  0  0
  6  1  2  0  0  0  0
  7  8  1  0  0  0  0
  8  1  1  0  0  0  0
  9  6  1  0  0  0  0
 10  9  1  0  0  0  0
 11 12  1  0  0  0  0
 12 13  1  0  0  0  0
 13 15  2  0  0  0  0
 14 13  1  0  0  0  0
M  END
>  <MODEL>
5

>  <REMARK>
 VINA RESULT:    -5.158      4.950      7.338
 INTER + INTRA:          -6.866
 INTER:                  -6.520
 INTRA:                  -0.346
 UNBOUND:                -0.351
  Name = CHEMBL25894
  7 active torsions:
  status: ('A' for Active; 'I' for Inactive)
    1  A    between atoms: C_1  and  O_2
    2  A    between atoms: O_2  and  C_3
    3  A    between atoms: C_5  and  C_6
    4  A    between atoms: C_6  and  C_7
    5  A    between atoms: C_7  and  C_8
    6  A    between atoms: C_8  and  C_9
    7  A    between atoms: C_13  and  O_14
                            x       y       z     vdW  Elec       q    Type
                         _______ _______ _______ _____ _____    ______ ____

>  <TORSDO>
F 5

>  <SCORE>
-5.158

>  <RMSD_LB>
4.950

>  <RMSD_UB>
7.338

$$$$
CHEMBL25894
 OpenBabel10172500213D

 15 15  0  0  0  0  0  0  0  0999 V2000
  148.1710  141.4910  153.0610 C   0  0  0  0  0  0  0  0  0  0  0  0
  146.8400  141.3610  152.6450 C   0  0  0  0  0  3  0  0  0  0  0  0
  146.4050  141.8580  151.4050 C   0  0  0  0  0  0  0  0  0  0  0  0
  147.3520  142.4540  150.5570 C   0  0  0  0  0  3  0  0  0  0  0  0
  148.6860  142.5850  150.9540 C   0  0  0  0  0  3  0  0  0  0  0  0
  149.0860  142.1100  152.2010 C   0  0  0  0  0  0  0  0  0  0  0  0
  148.2100  139.7750  154.7150 C   0  0  0  0  0  1  0  0  0  0  0  0
  148.6600  141.0440  154.2600 O   0  0  0  0  0  0  0  0  0  0  0  0
  150.3900  142.2430  152.5950 O   0  0  0  0  0  0  0  0  0  0  0  0
  150.6620  141.9220  153.4320 H   0  0  0  0  0  0  0  0  0  0  0  0
  144.9750  141.7020  150.9280 C   0  0  0  0  0  2  0  0  0  0  0  0
  144.3270  140.3520  151.2500 C   0  0  0  0  0  2  0  0  0  0  0  0
  144.4020  139.3780  150.0900 C   0  0  0  0  0  0  0  0  0  0  0  0
  144.5830  139.9750  148.7180 C   0  0  0  0  0  1  0  0  0  0  0  0
  144.3090  138.1610  150.2380 O   0  0  0  0  0  0  0  0  0  0  0  0
  1  8  1  0  0  0  0
  2  1  1  0  0  0  0
  3  2  2  0  0  0  0
  4  5  2  0  0  0  0
  4  3  1  0  0  0  0
  5  6  1  0  0  0  0
  6  9  1  0  0  0  0
  6  1  2  0  0  0  0
  8  7  1  0  0  0  0
  9 10  1  0  0  0  0
 11 12  1  0  0  0  0
 11  3  1  0  0  0  0
 13 15  2  0  0  0  0
 13 12  1  0  0  0  0
 14 13  1  0  0  0  0
M  END
>  <MODEL>
6

>  <REMARK>
 VINA RESULT:    -5.009     11.274     13.672
 INTER + INTRA:          -6.678
 INTER:                  -6.310
 INTRA:                  -0.368
 UNBOUND:                -0.351
  Name = CHEMBL25894
  7 active torsions:
  status: ('A' for Active; 'I' for Inactive)
    1  A    between atoms: C_1  and  O_2
    2  A    between atoms: O_2  and  C_3
    3  A    between atoms: C_5  and  C_6
    4  A    between atoms: C_6  and  C_7
    5  A    between atoms: C_7  and  C_8
    6  A    between atoms: C_8  and  C_9
    7  A    between atoms: C_13  and  O_14
                            x       y       z     vdW  Elec       q    Type
                         _______ _______ _______ _____ _____    ______ ____

>  <TORSDO>
F 5

>  <SCORE>
-5.009

>  <RMSD_LB>
11.274

>  <RMSD_UB>
13.672

$$$$
CHEMBL25894
 OpenBabel10172500213D

 15 15  0  0  0  0  0  0  0  0999 V2000
  139.3790  138.2070  154.7530 C   0  0  0  0  0  0  0  0  0  0  0  0
  138.5620  138.1060  153.6210 C   0  0  0  0  0  3  0  0  0  0  0  0
  139.1040  137.9270  152.3370 C   0  0  0  0  0  0  0  0  0  0  0  0
  140.4960  137.8030  152.2130 C   0  0  0  0  0  3  0  0  0  0  0  0
  141.3250  137.8950  153.3350 C   0  0  0  0  0  3  0  0  0  0  0  0
  140.7650  138.1020  154.5930 C   0  0  0  0  0  0  0  0  0  0  0  0
  137.5970  137.9660  156.3180 C   0  0  0  0  0  1  0  0  0  0  0  0
  138.9210  138.3960  156.0310 O   0  0  0  0  0  0  0  0  0  0  0  0
  141.5750  138.1980  155.6930 O   0  0  0  0  0  0  0  0  0  0  0  0
  142.5070  138.2180  155.5900 H   0  0  0  0  0  0  0  0  0  0  0  0
  138.2330  137.7870  151.1040 C   0  0  0  0  0  2  0  0  0  0  0  0
  138.8070  138.4120  149.8300 C   0  0  0  0  0  2  0  0  0  0  0  0
  138.6030  139.9140  149.7720 C   0  0  0  0  0  0  0  0  0  0  0  0
  137.4040  140.4020  149.0010 C   0  0  0  0  0  1  0  0  0  0  0  0
  139.3710  140.7100  150.3090 O   0  0  0  0  0  0  0  0  0  0  0  0
  1  8  1  0  0  0  0
  2  1  2  0  0  0  0
  3  2  1  0  0  0  0
  4  3  2  0  0  0  0
  4  5  1  0  0  0  0
  5  6  2  0  0  0  0
  6  1  1  0  0  0  0
  6  9  1  0  0  0  0
  8  7  1  0  0  0  0
 10  9  1  0  0  0  0
 11  3  1  0  0  0  0
 12 11  1  0  0  0  0
 13 12  1  0  0  0  0
 13 15  2  0  0  0  0
 14 13  1  0  0  0  0
M  END
>  <MODEL>
7

>  <REMARK>
 VINA RESULT:    -4.953      4.449      6.851
 INTER + INTRA:          -6.606
 INTER:                  -6.274
 INTRA:                  -0.332
 UNBOUND:                -0.351
  Name = CHEMBL25894
  7 active torsions:
  status: ('A' for Active; 'I' for Inactive)
    1  A    between atoms: C_1  and  O_2
    2  A    between atoms: O_2  and  C_3
    3  A    between atoms: C_5  and  C_6
    4  A    between atoms: C_6  and  C_7
    5  A    between atoms: C_7  and  C_8
    6  A    between atoms: C_8  and  C_9
    7  A    between atoms: C_13  and  O_14
                            x       y       z     vdW  Elec       q    Type
                         _______ _______ _______ _____ _____    ______ ____

>  <TORSDO>
F 5

>  <SCORE>
-4.953

>  <RMSD_LB>
4.449

>  <RMSD_UB>
6.851

$$$$
CHEMBL25894
 OpenBabel10172500213D

 15 15  0  0  0  0  0  0  0  0999 V2000
  136.1510  135.9380  152.1030 C   0  0  0  0  0  0  0  0  0  0  0  0
  135.5600  135.0680  151.1790 C   0  0  0  0  0  3  0  0  0  0  0  0
  134.6460  134.0790  151.5800 C   0  0  0  0  0  0  0  0  0  0  0  0
  134.2960  134.0080  152.9370 C   0  0  0  0  0  3  0  0  0  0  0  0
  134.8720  134.8730  153.8720 C   0  0  0  0  0  3  0  0  0  0  0  0
  135.7980  135.8260  153.4530 C   0  0  0  0  0  0  0  0  0  0  0  0
  137.2030  137.2460  150.4100 C   0  0  0  0  0  1  0  0  0  0  0  0
  137.0590  136.9140  151.7850 O   0  0  0  0  0  0  0  0  0  0  0  0
  136.3680  136.6710  154.3670 O   0  0  0  0  0  0  0  0  0  0  0  0
  135.8260  137.2150  154.9040 H   0  0  0  0  0  0  0  0  0  0  0  0
  133.9760  133.1480  150.5900 C   0  0  0  0  0  2  0  0  0  0  0  0
  134.3050  133.4190  149.1190 C   0  0  0  0  0  2  0  0  0  0  0  0
  133.1710  134.1110  148.3860 C   0  0  0  0  0  0  0  0  0  0  0  0
  133.3920  135.5540  148.0110 C   0  0  0  0  0  1  0  0  0  0  0  0
  132.1130  133.5460  148.1150 O   0  0  0  0  0  0  0  0  0  0  0  0
  1  6  1  0  0  0  0
  2  3  1  0  0  0  0
  2  1  2  0  0  0  0
  3  4  2  0  0  0  0
  4  5  1  0  0  0  0
  6  5  2  0  0  0  0
  6  9  1  0  0  0  0
  7  8  1  0  0  0  0
  8  1  1  0  0  0  0
  9 10  1  0  0  0  0
 11  3  1  0  0  0  0
 12 11  1  0  0  0  0
 13 12  1  0  0  0  0
 14 13  1  0  0  0  0
 15 13  2  0  0  0  0
M  END
>  <MODEL>
8

>  <REMARK>
 VINA RESULT:    -4.934      3.640      7.312
 INTER + INTRA:          -6.583
 INTER:                  -6.243
 INTRA:                  -0.340
 UNBOUND:                -0.351
  Name = CHEMBL25894
  7 active torsions:
  status: ('A' for Active; 'I' for Inactive)
    1  A    between atoms: C_1  and  O_2
    2  A    between atoms: O_2  and  C_3
    3  A    between atoms: C_5  and  C_6
    4  A    between atoms: C_6  and  C_7
    5  A    between atoms: C_7  and  C_8
    6  A    between atoms: C_8  and  C_9
    7  A    between atoms: C_13  and  O_14
                            x       y       z     vdW  Elec       q    Type
                         _______ _______ _______ _____ _____    ______ ____

>  <TORSDO>
F 5

>  <SCORE>
-4.934

>  <RMSD_LB>
3.640

>  <RMSD_UB>
7.312

$$$$
CHEMBL25894
 OpenBabel10172500213D

 15 15  0  0  0  0  0  0  0  0999 V2000
  145.3650  138.4410  153.8670 C   0  0  0  0  0  0  0  0  0  0  0  0
  145.5710  139.8040  153.6190 C   0  0  0  0  0  3  0  0  0  0  0  0
  146.8460  140.3110  153.3140 C   0  0  0  0  0  0  0  0  0  0  0  0
  147.9150  139.4080  153.2140 C   0  0  0  0  0  3  0  0  0  0  0  0
  147.7250  138.0430  153.4510 C   0  0  0  0  0  3  0  0  0  0  0  0
  146.4570  137.5700  153.7810 C   0  0  0  0  0  0  0  0  0  0  0  0
  142.9900  138.6460  153.9050 C   0  0  0  0  0  1  0  0  0  0  0  0
  144.1550  137.8810  154.1840 O   0  0  0  0  0  0  0  0  0  0  0  0
  146.2680  136.2350  154.0200 O   0  0  0  0  0  0  0  0  0  0  0  0
  146.7900  135.7940  154.6610 H   0  0  0  0  0  0  0  0  0  0  0  0
  147.0820  141.7780  153.0160 C   0  0  0  0  0  2  0  0  0  0  0  0
  145.9240  142.4930  152.3140 C   0  0  0  0  0  2  0  0  0  0  0  0
  145.8380  142.1530  150.8380 C   0  0  0  0  0  0  0  0  0  0  0  0
  146.8770  142.7750  149.9410 C   0  0  0  0  0  1  0  0  0  0  0  0
  144.9660  141.4210  150.3750 O   0  0  0  0  0  0  0  0  0  0  0  0
  1  8  1  0  0  0  0
  2  1  2  0  0  0  0
  3  2  1  0  0  0  0
  4  3  2  0  0  0  0
  4  5  1  0  0  0  0
  5  6  2  0  0  0  0
  6  1  1  0  0  0  0
  6  9  1  0  0  0  0
  7  8  1  0  0  0  0
  9 10  1  0  0  0  0
 11  3  1  0  0  0  0
 12 11  1  0  0  0  0
 13 12  1  0  0  0  0
 14 13  1  0  0  0  0
 15 13  2  0  0  0  0
M  END
>  <MODEL>
9

>  <REMARK>
 VINA RESULT:    -4.798      9.768     11.643
 INTER + INTRA:          -6.412
 INTER:                  -6.061
 INTRA:                  -0.351
 UNBOUND:                -0.351
  Name = CHEMBL25894
  7 active torsions:
  status: ('A' for Active; 'I' for Inactive)
    1  A    between atoms: C_1  and  O_2
    2  A    between atoms: O_2  and  C_3
    3  A    between atoms: C_5  and  C_6
    4  A    between atoms: C_6  and  C_7
    5  A    between atoms: C_7  and  C_8
    6  A    between atoms: C_8  and  C_9
    7  A    between atoms: C_13  and  O_14
                            x       y       z     vdW  Elec       q    Type
                         _______ _______ _______ _____ _____    ______ ____

>  <TORSDO>
F 5

>  <SCORE>
-4.798

>  <RMSD_LB>
9.768

>  <RMSD_UB>
11.643

$$$$
