CHEMBL1698783
 OpenBabel10172501003D

 38 40  0  0  0  0  0  0  0  0999 V2000
  136.8600  136.5830  150.4210 C   0  0  0  0  0  0  0  0  0  0  0  0
  137.8450  137.0510  151.2980 C   0  0  0  0  0  3  0  0  0  0  0  0
  138.5560  138.2190  151.0100 C   0  0  0  0  0  3  0  0  0  0  0  0
  138.3000  138.9280  149.8330 C   0  0  0  0  0  3  0  0  0  0  0  0
  137.3130  138.4790  148.9440 C   0  0  0  0  0  0  0  0  0  0  0  0
  136.5790  137.3280  149.2650 C   0  0  0  0  0  3  0  0  0  0  0  0
  136.1720  135.2630  150.6410 C   0  0  0  0  0  2  0  0  0  0  0  0
  135.0890  135.2200  152.8170 C   0  0  0  0  0  0  0  0  0  0  0  0
  134.1590  135.9080  152.3950 O   0  0  0  0  0  0  0  0  0  0  0  0
  136.1490  134.8330  152.0200 N   0  0  0  0  0  0  0  0  0  0  0  0
  136.8750  134.2760  152.3850 H   0  0  0  0  0  0  0  0  0  0  0  0
  135.1190  134.7130  154.2450 C   0  0  0  0  0  2  0  0  0  0  0  0
  136.9310  137.4520  157.0910 C   0  0  0  0  0  0  0  0  0  0  0  0
  136.2840  136.2870  157.5280 C   0  0  0  0  0  3  0  0  0  0  0  0
  135.6890  135.4080  156.6140 C   0  0  0  0  0  3  0  0  0  0  0  0
  135.7100  135.6790  155.2440 C   0  0  0  0  0  0  0  0  0  0  0  0
  136.3550  136.8420  154.8090 C   0  0  0  0  0  3  0  0  0  0  0  0
  136.9730  137.7210  155.7130 C   0  0  0  0  0  0  0  0  0  0  0  0
  138.0190  137.9030  159.1640 C   0  0  0  0  0  1  0  0  0  0  0  0
  137.4510  138.3820  157.9510 O   0  0  0  0  0  0  0  0  0  0  0  0
  137.5460  138.8090  155.1000 O   0  0  0  0  0  0  0  0  0  0  0  0
  138.9170  138.6910  154.7450 C   0  0  0  0  0  1  0  0  0  0  0  0
  137.0560  139.1890  147.6360 C   0  0  0  0  0  2  0  0  0  0  0  0
  135.8540  138.6790  147.0120 N   0  0  0  0  0  0  0  0  0  0  0  0
  135.8480  138.2040  145.7230 C   0  0  0  0  0  0  0  0  0  0  0  0
  136.8450  138.1940  145.0060 O   0  0  0  0  0  0  0  0  0  0  0  0
  135.0140  138.6720  147.5270 H   0  0  0  0  0  0  0  0  0  0  0  0
  134.4990  137.6900  145.2490 C   0  0  0  0  0  2  0  0  0  0  0  0
  133.9090  136.6400  146.1580 C   0  0  0  0  0  0  0  0  0  0  0  0
  132.9410  136.9800  147.1030 C   0  0  0  0  0  3  0  0  0  0  0  0
  132.3970  136.0090  147.9500 C   0  0  0  0  0  3  0  0  0  0  0  0
  132.8000  134.6690  147.8650 C   0  0  0  0  0  0  0  0  0  0  0  0
  133.7410  134.3100  146.8840 C   0  0  0  0  0  0  0  0  0  0  0  0
  134.2980  135.2980  146.0560 C   0  0  0  0  0  3  0  0  0  0  0  0
  132.3420  133.6890  148.7050 O   0  0  0  0  0  0  0  0  0  0  0  0
  132.7810  133.7070  150.0570 C   0  0  0  0  0  1  0  0  0  0  0  0
  134.2540  133.0600  146.6440 O   0  0  0  0  0  0  0  0  0  0  0  0
  135.5510  132.7910  147.1640 C   0  0  0  0  0  1  0  0  0  0  0  0
  1  7  1  0  0  0  0
  1  2  1  0  0  0  0
  3  2  2  0  0  0  0
  4  3  1  0  0  0  0
  5  6  1  0  0  0  0
  5  4  2  0  0  0  0
  6  1  2  0  0  0  0
  7 10  1  0  0  0  0
  8 12  1  0  0  0  0
  9  8  2  0  0  0  0
 10 11  1  0  0  0  0
 10  8  1  0  0  0  0
 12 16  1  0  0  0  0
 13 14  1  0  0  0  0
 13 20  1  0  0  0  0
 15 14  2  0  0  0  0
 16 15  1  0  0  0  0
 17 16  2  0  0  0  0
 17 18  1  0  0  0  0
 18 13  2  0  0  0  0
 20 19  1  0  0  0  0
 21 18  1  0  0  0  0
 22 21  1  0  0  0  0
 23  5  1  0  0  0  0
 24 27  1  0  0  0  0
 24 23  1  0  0  0  0
 25 24  1  0  0  0  0
 26 25  2  0  0  0  0
 28 25  1  0  0  0  0
 28 29  1  0  0  0  0
 29 30  1  0  0  0  0
 30 31  2  0  0  0  0
 32 31  1  0  0  0  0
 32 35  1  0  0  0  0
 33 32  2  0  0  0  0
 34 29  2  0  0  0  0
 34 33  1  0  0  0  0
 35 36  1  0  0  0  0
 37 33  1  0  0  0  0
 37 38  1  0  0  0  0
M  END
>  <MODEL>
1

>  <REMARK>
 VINA RESULT:    -8.584      0.000      0.000
 INTER + INTRA:         -15.956
 INTER:                 -13.853
 INTRA:                  -2.103
 UNBOUND:                -1.350
  Name = CHEMBL1698783
  16 active torsions:
  status: ('A' for Active; 'I' for Inactive)
    1  A    between atoms: C_1  and  O_2
    2  A    between atoms: O_2  and  C_3
    3  A    between atoms: C_6  and  C_7
    4  A    between atoms: C_7  and  C_8
    5  A    between atoms: N_10  and  C_11
    6  A    between atoms: C_11  and  C_12
    7  A    between atoms: C_16  and  C_17
    8  A    between atoms: C_17  and  N_18
    9  A    between atoms: C_19  and  C_21
   10  A    between atoms: C_21  and  C_22
   11  A    between atoms: C_25  and  O_26
   12  A    between atoms: O_26  and  C_27
   13  A    between atoms: C_28  and  O_29
   14  A    between atoms: O_29  and  C_30
   15  A    between atoms: C_34  and  O_35
   16  A    between atoms: O_35  and  C_36
                            x       y       z     vdW  Elec       q    Type
                         _______ _______ _______ _____ _____    ______ ____

>  <TORSDO>
F 12

>  <SCORE>
-8.584

>  <RMSD_LB>
0.000

>  <RMSD_UB>
0.000

$$$$
CHEMBL1698783
 OpenBabel10172501003D

 38 40  0  0  0  0  0  0  0  0999 V2000
  138.4800  137.8410  151.4780 C   0  0  0  0  0  0  0  0  0  0  0  0
  138.2950  137.9950  150.1000 C   0  0  0  0  0  3  0  0  0  0  0  0
  137.2750  137.3050  149.4390 C   0  0  0  0  0  3  0  0  0  0  0  0
  136.4350  136.4420  150.1470 C   0  0  0  0  0  3  0  0  0  0  0  0
  136.5990  136.2800  151.5290 C   0  0  0  0  0  0  0  0  0  0  0  0
  137.6000  137.0080  152.1870 C   0  0  0  0  0  3  0  0  0  0  0  0
  139.6470  138.4700  152.1910 C   0  0  0  0  0  2  0  0  0  0  0  0
  139.4120  138.6200  154.6050 C   0  0  0  0  0  0  0  0  0  0  0  0
  138.7740  139.6690  154.5030 O   0  0  0  0  0  0  0  0  0  0  0  0
  139.8920  137.9310  153.5090 N   0  0  0  0  0  0  0  0  0  0  0  0
  140.3920  137.0900  153.6230 H   0  0  0  0  0  0  0  0  0  0  0  0
  139.6850  137.9840  155.9550 C   0  0  0  0  0  2  0  0  0  0  0  0
  136.2890  136.0960  157.9000 C   0  0  0  0  0  0  0  0  0  0  0  0
  136.5890  135.8240  156.5580 C   0  0  0  0  0  3  0  0  0  0  0  0
  137.6760  136.4400  155.9240 C   0  0  0  0  0  3  0  0  0  0  0  0
  138.4790  137.3540  156.6090 C   0  0  0  0  0  0  0  0  0  0  0  0
  138.1780  137.6250  157.9490 C   0  0  0  0  0  3  0  0  0  0  0  0
  137.1040  136.9990  158.6020 C   0  0  0  0  0  0  0  0  0  0  0  0
  134.3090  134.7740  157.7650 C   0  0  0  0  0  1  0  0  0  0  0  0
  135.1890  135.5840  158.5350 O   0  0  0  0  0  0  0  0  0  0  0  0
  136.9610  137.3980  159.9090 O   0  0  0  0  0  0  0  0  0  0  0  0
  136.6470  138.7680  160.1260 C   0  0  0  0  0  1  0  0  0  0  0  0
  135.7450  135.3090  152.3110 C   0  0  0  0  0  2  0  0  0  0  0  0
  134.8830  134.5630  151.4190 N   0  0  0  0  0  0  0  0  0  0  0  0
  133.5290  134.4660  151.6270 C   0  0  0  0  0  0  0  0  0  0  0  0
  132.9560  134.9840  152.5820 O   0  0  0  0  0  0  0  0  0  0  0  0
  135.2800  134.1090  150.6400 H   0  0  0  0  0  0  0  0  0  0  0  0
  132.7870  133.6600  150.5740 C   0  0  0  0  0  2  0  0  0  0  0  0
  133.4550  133.6900  149.2210 C   0  0  0  0  0  0  0  0  0  0  0  0
  134.2300  132.6140  148.7850 C   0  0  0  0  0  3  0  0  0  0  0  0
  134.8540  132.6430  147.5350 C   0  0  0  0  0  3  0  0  0  0  0  0
  134.7110  133.7460  146.6800 C   0  0  0  0  0  0  0  0  0  0  0  0
  133.8940  134.8130  147.0930 C   0  0  0  0  0  0  0  0  0  0  0  0
  133.2920  134.7840  148.3610 C   0  0  0  0  0  3  0  0  0  0  0  0
  135.3440  133.8500  145.4710 O   0  0  0  0  0  0  0  0  0  0  0  0
  135.1540  132.8080  144.5230 C   0  0  0  0  0  1  0  0  0  0  0  0
  133.6300  135.9700  146.4020 O   0  0  0  0  0  0  0  0  0  0  0  0
  134.3310  137.1360  146.8160 C   0  0  0  0  0  1  0  0  0  0  0  0
  1  6  1  0  0  0  0
  1  7  1  0  0  0  0
  2  1  2  0  0  0  0
  3  2  1  0  0  0  0
  3  4  2  0  0  0  0
  4  5  1  0  0  0  0
  5  6  2  0  0  0  0
  5 23  1  0  0  0  0
  7 10  1  0  0  0  0
  8 12  1  0  0  0  0
  9  8  2  0  0  0  0
 10 11  1  0  0  0  0
 10  8  1  0  0  0  0
 12 16  1  0  0  0  0
 13 20  1  0  0  0  0
 13 18  1  0  0  0  0
 14 13  2  0  0  0  0
 15 14  1  0  0  0  0
 15 16  2  0  0  0  0
 16 17  1  0  0  0  0
 17 18  2  0  0  0  0
 18 21  1  0  0  0  0
 19 20  1  0  0  0  0
 21 22  1  0  0  0  0
 24 25  1  0  0  0  0
 24 23  1  0  0  0  0
 25 26  2  0  0  0  0
 27 24  1  0  0  0  0
 28 25  1  0  0  0  0
 29 28  1  0  0  0  0
 30 29  1  0  0  0  0
 31 30  2  0  0  0  0
 32 33  2  0  0  0  0
 32 31  1  0  0  0  0
 33 34  1  0  0  0  0
 34 29  2  0  0  0  0
 35 32  1  0  0  0  0
 36 35  1  0  0  0  0
 37 38  1  0  0  0  0
 37 33  1  0  0  0  0
M  END
>  <MODEL>
2

>  <REMARK>
 VINA RESULT:    -8.515      1.896      4.608
 INTER + INTRA:         -15.838
 INTER:                 -14.018
 INTRA:                  -1.819
 UNBOUND:                -1.350
  Name = CHEMBL1698783
  16 active torsions:
  status: ('A' for Active; 'I' for Inactive)
    1  A    between atoms: C_1  and  O_2
    2  A    between atoms: O_2  and  C_3
    3  A    between atoms: C_6  and  C_7
    4  A    between atoms: C_7  and  C_8
    5  A    between atoms: N_10  and  C_11
    6  A    between atoms: C_11  and  C_12
    7  A    between atoms: C_16  and  C_17
    8  A    between atoms: C_17  and  N_18
    9  A    between atoms: C_19  and  C_21
   10  A    between atoms: C_21  and  C_22
   11  A    between atoms: C_25  and  O_26
   12  A    between atoms: O_26  and  C_27
   13  A    between atoms: C_28  and  O_29
   14  A    between atoms: O_29  and  C_30
   15  A    between atoms: C_34  and  O_35
   16  A    between atoms: O_35  and  C_36
                            x       y       z     vdW  Elec       q    Type
                         _______ _______ _______ _____ _____    ______ ____

>  <TORSDO>
F 12

>  <SCORE>
-8.515

>  <RMSD_LB>
1.896

>  <RMSD_UB>
4.608

$$$$
CHEMBL1698783
 OpenBabel10172501003D

 38 40  0  0  0  0  0  0  0  0999 V2000
  137.0180  136.0320  156.9260 C   0  0  0  0  0  0  0  0  0  0  0  0
  136.4400  135.6770  158.1500 C   0  0  0  0  0  3  0  0  0  0  0  0
  135.2410  134.9600  158.1880 C   0  0  0  0  0  3  0  0  0  0  0  0
  134.5980  134.6000  157.0000 C   0  0  0  0  0  3  0  0  0  0  0  0
  135.1640  134.9400  155.7640 C   0  0  0  0  0  0  0  0  0  0  0  0
  136.3880  135.6250  155.7400 C   0  0  0  0  0  3  0  0  0  0  0  0
  138.2370  136.9120  156.8570 C   0  0  0  0  0  2  0  0  0  0  0  0
  139.5130  138.0770  155.1480 C   0  0  0  0  0  0  0  0  0  0  0  0
  140.5710  137.6470  155.6090 O   0  0  0  0  0  0  0  0  0  0  0  0
  138.2820  137.7660  155.6930 N   0  0  0  0  0  0  0  0  0  0  0  0
  137.4530  138.1190  155.2960 H   0  0  0  0  0  0  0  0  0  0  0  0
  139.4830  138.9570  153.9130 C   0  0  0  0  0  2  0  0  0  0  0  0
  140.7760  137.0830  150.2130 C   0  0  0  0  0  0  0  0  0  0  0  0
  139.4480  137.5000  150.3790 C   0  0  0  0  0  3  0  0  0  0  0  0
  139.0250  138.0940  151.5760 C   0  0  0  0  0  3  0  0  0  0  0  0
  139.9130  138.2700  152.6400 C   0  0  0  0  0  0  0  0  0  0  0  0
  141.2380  137.8520  152.4720 C   0  0  0  0  0  3  0  0  0  0  0  0
  141.6800  137.2740  151.2710 C   0  0  0  0  0  0  0  0  0  0  0  0
  140.4430  135.3120  148.6510 C   0  0  0  0  0  1  0  0  0  0  0  0
  141.2140  136.4210  149.0960 O   0  0  0  0  0  0  0  0  0  0  0  0
  143.0070  136.9220  151.2990 O   0  0  0  0  0  0  0  0  0  0  0  0
  143.7510  137.3350  152.4390 C   0  0  0  0  0  1  0  0  0  0  0  0
  134.4630  134.6180  154.4660 C   0  0  0  0  0  2  0  0  0  0  0  0
  135.3490  134.8420  153.3430 N   0  0  0  0  0  0  0  0  0  0  0  0
  135.0670  135.7680  152.3670 C   0  0  0  0  0  0  0  0  0  0  0  0
  134.0470  136.4520  152.3640 O   0  0  0  0  0  0  0  0  0  0  0  0
  136.1790  134.3160  153.2770 H   0  0  0  0  0  0  0  0  0  0  0  0
  136.1250  135.8780  151.2820 C   0  0  0  0  0  2  0  0  0  0  0  0
  135.8100  135.0550  150.0580 C   0  0  0  0  0  0  0  0  0  0  0  0
  134.5070  134.6240  149.8060 C   0  0  0  0  0  3  0  0  0  0  0  0
  134.2150  133.8560  148.6740 C   0  0  0  0  0  3  0  0  0  0  0  0
  135.2180  133.5090  147.7570 C   0  0  0  0  0  0  0  0  0  0  0  0
  136.5240  133.9800  147.9790 C   0  0  0  0  0  0  0  0  0  0  0  0
  136.8100  134.7290  149.1320 C   0  0  0  0  0  3  0  0  0  0  0  0
  134.9980  132.7150  146.6640 O   0  0  0  0  0  0  0  0  0  0  0  0
  134.3960  133.3030  145.5180 C   0  0  0  0  0  1  0  0  0  0  0  0
  137.6310  133.7520  147.2020 O   0  0  0  0  0  0  0  0  0  0  0  0
  137.8410  134.6400  146.1100 C   0  0  0  0  0  1  0  0  0  0  0  0
  1  2  1  0  0  0  0
  2  3  2  0  0  0  0
  4  3  1  0  0  0  0
  5  4  2  0  0  0  0
  6  5  1  0  0  0  0
  6  1  2  0  0  0  0
  7  1  1  0  0  0  0
  8  9  2  0  0  0  0
  8 10  1  0  0  0  0
 10  7  1  0  0  0  0
 11 10  1  0  0  0  0
 12  8  1  0  0  0  0
 13 14  2  0  0  0  0
 13 18  1  0  0  0  0
 14 15  1  0  0  0  0
 15 16  2  0  0  0  0
 16 12  1  0  0  0  0
 17 16  1  0  0  0  0
 18 21  1  0  0  0  0
 18 17  2  0  0  0  0
 19 20  1  0  0  0  0
 20 13  1  0  0  0  0
 21 22  1  0  0  0  0
 23  5  1  0  0  0  0
 24 23  1  0  0  0  0
 25 24  1  0  0  0  0
 26 25  2  0  0  0  0
 27 24  1  0  0  0  0
 28 25  1  0  0  0  0
 29 28  1  0  0  0  0
 30 29  1  0  0  0  0
 31 30  2  0  0  0  0
 32 33  2  0  0  0  0
 32 31  1  0  0  0  0
 33 34  1  0  0  0  0
 34 29  2  0  0  0  0
 35 32  1  0  0  0  0
 36 35  1  0  0  0  0
 37 33  1  0  0  0  0
 38 37  1  0  0  0  0
M  END
>  <MODEL>
3

>  <REMARK>
 VINA RESULT:    -8.275      2.720      6.558
 INTER + INTRA:         -15.431
 INTER:                 -13.693
 INTRA:                  -1.737
 UNBOUND:                -1.350
  Name = CHEMBL1698783
  16 active torsions:
  status: ('A' for Active; 'I' for Inactive)
    1  A    between atoms: C_1  and  O_2
    2  A    between atoms: O_2  and  C_3
    3  A    between atoms: C_6  and  C_7
    4  A    between atoms: C_7  and  C_8
    5  A    between atoms: N_10  and  C_11
    6  A    between atoms: C_11  and  C_12
    7  A    between atoms: C_16  and  C_17
    8  A    between atoms: C_17  and  N_18
    9  A    between atoms: C_19  and  C_21
   10  A    between atoms: C_21  and  C_22
   11  A    between atoms: C_25  and  O_26
   12  A    between atoms: O_26  and  C_27
   13  A    between atoms: C_28  and  O_29
   14  A    between atoms: O_29  and  C_30
   15  A    between atoms: C_34  and  O_35
   16  A    between atoms: O_35  and  C_36
                            x       y       z     vdW  Elec       q    Type
                         _______ _______ _______ _____ _____    ______ ____

>  <TORSDO>
F 12

>  <SCORE>
-8.275

>  <RMSD_LB>
2.720

>  <RMSD_UB>
6.558

$$$$
CHEMBL1698783
 OpenBabel10172501003D

 38 40  0  0  0  0  0  0  0  0999 V2000
  141.9900  137.6970  151.7600 C   0  0  0  0  0  0  0  0  0  0  0  0
  143.1190  137.4850  152.5590 C   0  0  0  0  0  3  0  0  0  0  0  0
  143.0520  137.6620  153.9440 C   0  0  0  0  0  3  0  0  0  0  0  0
  141.8580  138.0660  154.5460 C   0  0  0  0  0  3  0  0  0  0  0  0
  140.7140  138.2770  153.7640 C   0  0  0  0  0  0  0  0  0  0  0  0
  140.7830  138.0570  152.3800 C   0  0  0  0  0  3  0  0  0  0  0  0
  142.0660  137.6390  150.2580 C   0  0  0  0  0  2  0  0  0  0  0  0
  143.4240  139.4340  149.3410 C   0  0  0  0  0  0  0  0  0  0  0  0
  142.4960  140.2340  149.4660 O   0  0  0  0  0  0  0  0  0  0  0  0
  143.3190  138.1070  149.7130 N   0  0  0  0  0  0  0  0  0  0  0  0
  144.0820  137.4940  149.6080 H   0  0  0  0  0  0  0  0  0  0  0  0
  144.7740  139.8610  148.8000 C   0  0  0  0  0  2  0  0  0  0  0  0
  147.4250  141.4100  151.8750 C   0  0  0  0  0  0  0  0  0  0  0  0
  146.6770  142.2790  151.0690 C   0  0  0  0  0  3  0  0  0  0  0  0
  145.8300  141.7840  150.0690 C   0  0  0  0  0  3  0  0  0  0  0  0
  145.7230  140.4100  149.8380 C   0  0  0  0  0  0  0  0  0  0  0  0
  146.4720  139.5430  150.6430 C   0  0  0  0  0  3  0  0  0  0  0  0
  147.3090  140.0260  151.6630 C   0  0  0  0  0  0  0  0  0  0  0  0
  147.8810  141.9500  154.1530 C   0  0  0  0  0  1  0  0  0  0  0  0
  148.3280  141.8500  152.8060 O   0  0  0  0  0  0  0  0  0  0  0  0
  147.9660  139.0270  152.3380 O   0  0  0  0  0  0  0  0  0  0  0  0
  147.1770  137.9270  152.7740 C   0  0  0  0  0  1  0  0  0  0  0  0
  139.4250  138.7710  154.3780 C   0  0  0  0  0  2  0  0  0  0  0  0
  138.5650  137.6570  154.7130 N   0  0  0  0  0  0  0  0  0  0  0  0
  137.2940  137.8390  155.2030 C   0  0  0  0  0  0  0  0  0  0  0  0
  136.8060  138.9470  155.4080 O   0  0  0  0  0  0  0  0  0  0  0  0
  138.9010  136.7390  154.5870 H   0  0  0  0  0  0  0  0  0  0  0  0
  136.5350  136.5520  155.4760 C   0  0  0  0  0  2  0  0  0  0  0  0
  135.7090  136.0870  154.3020 C   0  0  0  0  0  0  0  0  0  0  0  0
  134.3640  135.7510  154.4660 C   0  0  0  0  0  3  0  0  0  0  0  0
  133.5990  135.3140  153.3790 C   0  0  0  0  0  3  0  0  0  0  0  0
  134.1570  135.2150  152.0960 C   0  0  0  0  0  0  0  0  0  0  0  0
  135.4970  135.5970  151.9140 C   0  0  0  0  0  0  0  0  0  0  0  0
  136.2630  136.0100  153.0170 C   0  0  0  0  0  3  0  0  0  0  0  0
  133.4700  134.7420  151.0110 O   0  0  0  0  0  0  0  0  0  0  0  0
  133.4210  133.3360  150.8090 C   0  0  0  0  0  1  0  0  0  0  0  0
  136.2150  135.5740  150.7440 O   0  0  0  0  0  0  0  0  0  0  0  0
  135.8480  136.5220  149.7490 C   0  0  0  0  0  1  0  0  0  0  0  0
  1  6  2  0  0  0  0
  1  2  1  0  0  0  0
  2  3  2  0  0  0  0
  3  4  1  0  0  0  0
  5 23  1  0  0  0  0
  5  4  2  0  0  0  0
  6  5  1  0  0  0  0
  7  1  1  0  0  0  0
  8  9  2  0  0  0  0
  8 10  1  0  0  0  0
 10  7  1  0  0  0  0
 11 10  1  0  0  0  0
 12  8  1  0  0  0  0
 12 16  1  0  0  0  0
 13 20  1  0  0  0  0
 14 13  2  0  0  0  0
 15 14  1  0  0  0  0
 16 15  2  0  0  0  0
 16 17  1  0  0  0  0
 17 18  2  0  0  0  0
 18 13  1  0  0  0  0
 18 21  1  0  0  0  0
 20 19  1  0  0  0  0
 21 22  1  0  0  0  0
 23 24  1  0  0  0  0
 24 25  1  0  0  0  0
 25 26  2  0  0  0  0
 25 28  1  0  0  0  0
 27 24  1  0  0  0  0
 29 30  1  0  0  0  0
 29 28  1  0  0  0  0
 31 30  2  0  0  0  0
 32 31  1  0  0  0  0
 33 32  2  0  0  0  0
 33 34  1  0  0  0  0
 34 29  2  0  0  0  0
 35 32  1  0  0  0  0
 36 35  1  0  0  0  0
 37 33  1  0  0  0  0
 38 37  1  0  0  0  0
M  END
>  <MODEL>
4

>  <REMARK>
 VINA RESULT:    -8.261      5.709      8.827
 INTER + INTRA:         -15.406
 INTER:                 -14.125
 INTRA:                  -1.281
 UNBOUND:                -1.350
  Name = CHEMBL1698783
  16 active torsions:
  status: ('A' for Active; 'I' for Inactive)
    1  A    between atoms: C_1  and  O_2
    2  A    between atoms: O_2  and  C_3
    3  A    between atoms: C_6  and  C_7
    4  A    between atoms: C_7  and  C_8
    5  A    between atoms: N_10  and  C_11
    6  A    between atoms: C_11  and  C_12
    7  A    between atoms: C_16  and  C_17
    8  A    between atoms: C_17  and  N_18
    9  A    between atoms: C_19  and  C_21
   10  A    between atoms: C_21  and  C_22
   11  A    between atoms: C_25  and  O_26
   12  A    between atoms: O_26  and  C_27
   13  A    between atoms: C_28  and  O_29
   14  A    between atoms: O_29  and  C_30
   15  A    between atoms: C_34  and  O_35
   16  A    between atoms: O_35  and  C_36
                            x       y       z     vdW  Elec       q    Type
                         _______ _______ _______ _____ _____    ______ ____

>  <TORSDO>
F 12

>  <SCORE>
-8.261

>  <RMSD_LB>
5.709

>  <RMSD_UB>
8.827

$$$$
CHEMBL1698783
 OpenBabel10172501003D

 38 40  0  0  0  0  0  0  0  0999 V2000
  136.8960  136.2060  150.8270 C   0  0  0  0  0  0  0  0  0  0  0  0
  137.4680  135.8150  149.6110 C   0  0  0  0  0  3  0  0  0  0  0  0
  138.7440  136.2590  149.2510 C   0  0  0  0  0  3  0  0  0  0  0  0
  139.4580  137.1120  150.0970 C   0  0  0  0  0  3  0  0  0  0  0  0
  138.9040  137.5100  151.3220 C   0  0  0  0  0  0  0  0  0  0  0  0
  137.6410  137.0250  151.6890 C   0  0  0  0  0  3  0  0  0  0  0  0
  135.4770  135.8490  151.1800 C   0  0  0  0  0  2  0  0  0  0  0  0
  133.6900  134.5320  150.1900 C   0  0  0  0  0  0  0  0  0  0  0  0
  133.5000  133.9430  151.2550 O   0  0  0  0  0  0  0  0  0  0  0  0
  134.6530  135.5120  150.0430 N   0  0  0  0  0  0  0  0  0  0  0  0
  134.7750  135.9700  149.1800 H   0  0  0  0  0  0  0  0  0  0  0  0
  132.8470  134.2480  148.9620 C   0  0  0  0  0  2  0  0  0  0  0  0
  133.6000  137.0090  145.6930 C   0  0  0  0  0  0  0  0  0  0  0  0
  132.7890  137.3820  146.7740 C   0  0  0  0  0  3  0  0  0  0  0  0
  132.5340  136.4900  147.8240 C   0  0  0  0  0  3  0  0  0  0  0  0
  133.0690  135.1990  147.8120 C   0  0  0  0  0  0  0  0  0  0  0  0
  133.8780  134.8280  146.7310 C   0  0  0  0  0  3  0  0  0  0  0  0
  134.1570  135.7200  145.6820 C   0  0  0  0  0  0  0  0  0  0  0  0
  134.5110  139.0320  144.8200 C   0  0  0  0  0  1  0  0  0  0  0  0
  133.8060  137.8150  144.6050 O   0  0  0  0  0  0  0  0  0  0  0  0
  134.9600  135.1740  144.7110 O   0  0  0  0  0  0  0  0  0  0  0  0
  135.2420  133.7840  144.8250 C   0  0  0  0  0  1  0  0  0  0  0  0
  139.6260  138.4780  152.2300 C   0  0  0  0  0  2  0  0  0  0  0  0
  139.7330  137.9340  153.5660 N   0  0  0  0  0  0  0  0  0  0  0  0
  138.9970  138.4280  154.6160 C   0  0  0  0  0  0  0  0  0  0  0  0
  138.2160  139.3700  154.5040 O   0  0  0  0  0  0  0  0  0  0  0  0
  140.3530  137.1850  153.7290 H   0  0  0  0  0  0  0  0  0  0  0  0
  139.2280  137.7140  155.9370 C   0  0  0  0  0  2  0  0  0  0  0  0
  138.0100  136.9770  156.4360 C   0  0  0  0  0  0  0  0  0  0  0  0
  137.6740  136.9920  157.7910 C   0  0  0  0  0  3  0  0  0  0  0  0
  136.5490  136.3040  158.2560 C   0  0  0  0  0  3  0  0  0  0  0  0
  135.7220  135.5910  157.3740 C   0  0  0  0  0  0  0  0  0  0  0  0
  136.0270  135.6110  156.0020 C   0  0  0  0  0  0  0  0  0  0  0  0
  137.1740  136.2840  155.5510 C   0  0  0  0  0  3  0  0  0  0  0  0
  134.6420  134.8560  157.7830 O   0  0  0  0  0  0  0  0  0  0  0  0
  134.2730  134.9120  159.1550 C   0  0  0  0  0  1  0  0  0  0  0  0
  135.3430  134.9830  154.9920 O   0  0  0  0  0  0  0  0  0  0  0  0
  134.1540  135.6160  154.5340 C   0  0  0  0  0  1  0  0  0  0  0  0
  1  7  1  0  0  0  0
  1  6  1  0  0  0  0
  2  1  2  0  0  0  0
  3  2  1  0  0  0  0
  3  4  2  0  0  0  0
  4  5  1  0  0  0  0
  5  6  2  0  0  0  0
  5 23  1  0  0  0  0
  8  9  2  0  0  0  0
 10  8  1  0  0  0  0
 10  7  1  0  0  0  0
 11 10  1  0  0  0  0
 12  8  1  0  0  0  0
 13 14  1  0  0  0  0
 14 15  2  0  0  0  0
 16 15  1  0  0  0  0
 16 12  1  0  0  0  0
 17 16  2  0  0  0  0
 18 13  2  0  0  0  0
 18 17  1  0  0  0  0
 20 19  1  0  0  0  0
 20 13  1  0  0  0  0
 21 22  1  0  0  0  0
 21 18  1  0  0  0  0
 23 24  1  0  0  0  0
 24 27  1  0  0  0  0
 24 25  1  0  0  0  0
 25 28  1  0  0  0  0
 26 25  2  0  0  0  0
 28 29  1  0  0  0  0
 29 30  1  0  0  0  0
 30 31  2  0  0  0  0
 32 35  1  0  0  0  0
 32 31  1  0  0  0  0
 33 32  2  0  0  0  0
 34 33  1  0  0  0  0
 34 29  2  0  0  0  0
 35 36  1  0  0  0  0
 37 33  1  0  0  0  0
 38 37  1  0  0  0  0
M  END
>  <MODEL>
5

>  <REMARK>
 VINA RESULT:    -8.105      1.932      8.764
 INTER + INTRA:         -15.141
 INTER:                 -13.675
 INTRA:                  -1.466
 UNBOUND:                -1.350
  Name = CHEMBL1698783
  16 active torsions:
  status: ('A' for Active; 'I' for Inactive)
    1  A    between atoms: C_1  and  O_2
    2  A    between atoms: O_2  and  C_3
    3  A    between atoms: C_6  and  C_7
    4  A    between atoms: C_7  and  C_8
    5  A    between atoms: N_10  and  C_11
    6  A    between atoms: C_11  and  C_12
    7  A    between atoms: C_16  and  C_17
    8  A    between atoms: C_17  and  N_18
    9  A    between atoms: C_19  and  C_21
   10  A    between atoms: C_21  and  C_22
   11  A    between atoms: C_25  and  O_26
   12  A    between atoms: O_26  and  C_27
   13  A    between atoms: C_28  and  O_29
   14  A    between atoms: O_29  and  C_30
   15  A    between atoms: C_34  and  O_35
   16  A    between atoms: O_35  and  C_36
                            x       y       z     vdW  Elec       q    Type
                         _______ _______ _______ _____ _____    ______ ____

>  <TORSDO>
F 12

>  <SCORE>
-8.105

>  <RMSD_LB>
1.932

>  <RMSD_UB>
8.764

$$$$
CHEMBL1698783
 OpenBabel10172501003D

 38 40  0  0  0  0  0  0  0  0999 V2000
  137.0700  136.1390  150.3140 C   0  0  0  0  0  0  0  0  0  0  0  0
  137.9820  135.7830  149.3140 C   0  0  0  0  0  3  0  0  0  0  0  0
  139.2810  136.3000  149.3210 C   0  0  0  0  0  3  0  0  0  0  0  0
  139.6790  137.1910  150.3220 C   0  0  0  0  0  3  0  0  0  0  0  0
  138.7810  137.5550  151.3360 C   0  0  0  0  0  0  0  0  0  0  0  0
  137.4950  136.9970  151.3400 C   0  0  0  0  0  3  0  0  0  0  0  0
  135.6310  135.7000  150.2590 C   0  0  0  0  0  2  0  0  0  0  0  0
  133.8140  135.2480  148.7100 C   0  0  0  0  0  0  0  0  0  0  0  0
  133.2650  134.5110  149.5300 O   0  0  0  0  0  0  0  0  0  0  0  0
  135.0020  135.9010  148.9740 N   0  0  0  0  0  0  0  0  0  0  0  0
  135.4120  136.4910  148.3000 H   0  0  0  0  0  0  0  0  0  0  0  0
  133.1980  135.5250  147.3520 C   0  0  0  0  0  2  0  0  0  0  0  0
  135.7090  134.2320  144.0490 C   0  0  0  0  0  0  0  0  0  0  0  0
  135.3660  135.5820  144.2040 C   0  0  0  0  0  3  0  0  0  0  0  0
  134.5470  136.0020  145.2610 C   0  0  0  0  0  3  0  0  0  0  0  0
  134.0370  135.0800  146.1780 C   0  0  0  0  0  0  0  0  0  0  0  0
  134.3790  133.7320  146.0230 C   0  0  0  0  0  3  0  0  0  0  0  0
  135.2160  133.3020  144.9790 C   0  0  0  0  0  0  0  0  0  0  0  0
  137.7400  134.2990  142.8020 C   0  0  0  0  0  1  0  0  0  0  0  0
  136.4340  133.7650  142.9860 O   0  0  0  0  0  0  0  0  0  0  0  0
  135.4310  131.9450  144.9860 O   0  0  0  0  0  0  0  0  0  0  0  0
  136.4930  131.4730  145.8040 C   0  0  0  0  0  1  0  0  0  0  0  0
  139.1630  138.5600  152.3960 C   0  0  0  0  0  2  0  0  0  0  0  0
  139.3240  137.9070  153.6780 N   0  0  0  0  0  0  0  0  0  0  0  0
  138.5730  138.2580  154.7730 C   0  0  0  0  0  0  0  0  0  0  0  0
  137.7320  139.1530  154.7530 O   0  0  0  0  0  0  0  0  0  0  0  0
  139.9930  137.1890  153.7670 H   0  0  0  0  0  0  0  0  0  0  0  0
  138.8670  137.4460  156.0230 C   0  0  0  0  0  2  0  0  0  0  0  0
  137.6590  136.7180  156.5590 C   0  0  0  0  0  0  0  0  0  0  0  0
  137.3760  136.7200  157.9260 C   0  0  0  0  0  3  0  0  0  0  0  0
  136.2600  136.0410  158.4250 C   0  0  0  0  0  3  0  0  0  0  0  0
  135.3900  135.3510  157.5670 C   0  0  0  0  0  0  0  0  0  0  0  0
  135.6430  135.3850  156.1840 C   0  0  0  0  0  0  0  0  0  0  0  0
  136.7800  136.0490  155.6980 C   0  0  0  0  0  3  0  0  0  0  0  0
  134.3160  134.6250  158.0070 O   0  0  0  0  0  0  0  0  0  0  0  0
  133.9810  134.6930  159.3860 C   0  0  0  0  0  1  0  0  0  0  0  0
  134.9120  134.7800  155.1930 O   0  0  0  0  0  0  0  0  0  0  0  0
  134.4700  135.6110  154.1250 C   0  0  0  0  0  1  0  0  0  0  0  0
  1  6  1  0  0  0  0
  2  3  1  0  0  0  0
  2  1  2  0  0  0  0
  3  4  2  0  0  0  0
  4  5  1  0  0  0  0
  5  6  2  0  0  0  0
  5 23  1  0  0  0  0
  7  1  1  0  0  0  0
  8 10  1  0  0  0  0
  8  9  2  0  0  0  0
 10  7  1  0  0  0  0
 11 10  1  0  0  0  0
 12  8  1  0  0  0  0
 13 14  2  0  0  0  0
 13 18  1  0  0  0  0
 14 15  1  0  0  0  0
 15 16  2  0  0  0  0
 16 12  1  0  0  0  0
 17 16  1  0  0  0  0
 18 21  1  0  0  0  0
 18 17  2  0  0  0  0
 19 20  1  0  0  0  0
 20 13  1  0  0  0  0
 21 22  1  0  0  0  0
 23 24  1  0  0  0  0
 24 27  1  0  0  0  0
 24 25  1  0  0  0  0
 25 28  1  0  0  0  0
 26 25  2  0  0  0  0
 28 29  1  0  0  0  0
 29 30  1  0  0  0  0
 30 31  2  0  0  0  0
 32 35  1  0  0  0  0
 32 31  1  0  0  0  0
 33 32  2  0  0  0  0
 34 33  1  0  0  0  0
 34 29  2  0  0  0  0
 35 36  1  0  0  0  0
 37 33  1  0  0  0  0
 38 37  1  0  0  0  0
M  END
>  <MODEL>
6

>  <REMARK>
 VINA RESULT:    -7.992      2.259      9.349
 INTER + INTRA:         -14.949
 INTER:                 -13.450
 INTRA:                  -1.499
 UNBOUND:                -1.350
  Name = CHEMBL1698783
  16 active torsions:
  status: ('A' for Active; 'I' for Inactive)
    1  A    between atoms: C_1  and  O_2
    2  A    between atoms: O_2  and  C_3
    3  A    between atoms: C_6  and  C_7
    4  A    between atoms: C_7  and  C_8
    5  A    between atoms: N_10  and  C_11
    6  A    between atoms: C_11  and  C_12
    7  A    between atoms: C_16  and  C_17
    8  A    between atoms: C_17  and  N_18
    9  A    between atoms: C_19  and  C_21
   10  A    between atoms: C_21  and  C_22
   11  A    between atoms: C_25  and  O_26
   12  A    between atoms: O_26  and  C_27
   13  A    between atoms: C_28  and  O_29
   14  A    between atoms: O_29  and  C_30
   15  A    between atoms: C_34  and  O_35
   16  A    between atoms: O_35  and  C_36
                            x       y       z     vdW  Elec       q    Type
                         _______ _______ _______ _____ _____    ______ ____

>  <TORSDO>
F 12

>  <SCORE>
-7.992

>  <RMSD_LB>
2.259

>  <RMSD_UB>
9.349

$$$$
CHEMBL1698783
 OpenBabel10172501003D

 38 40  0  0  0  0  0  0  0  0999 V2000
  139.9050  136.6930  149.6200 C   0  0  0  0  0  0  0  0  0  0  0  0
  140.0030  137.3750  150.8370 C   0  0  0  0  0  3  0  0  0  0  0  0
  141.2370  137.5080  151.4800 C   0  0  0  0  0  3  0  0  0  0  0  0
  142.3880  136.9480  150.9190 C   0  0  0  0  0  3  0  0  0  0  0  0
  142.3120  136.2660  149.6960 C   0  0  0  0  0  0  0  0  0  0  0  0
  141.0750  136.1750  149.0420 C   0  0  0  0  0  3  0  0  0  0  0  0
  138.5740  136.4240  148.9720 C   0  0  0  0  0  2  0  0  0  0  0  0
  136.4600  135.7370  149.9550 C   0  0  0  0  0  0  0  0  0  0  0  0
  135.9410  136.8120  149.6520 O   0  0  0  0  0  0  0  0  0  0  0  0
  137.7740  135.4350  149.6570 N   0  0  0  0  0  0  0  0  0  0  0  0
  138.1580  134.5620  149.9050 H   0  0  0  0  0  0  0  0  0  0  0  0
  135.6740  134.6430  150.6520 C   0  0  0  0  0  2  0  0  0  0  0  0
  135.2430  135.2090  154.9390 C   0  0  0  0  0  0  0  0  0  0  0  0
  134.6780  134.0950  154.3020 C   0  0  0  0  0  3  0  0  0  0  0  0
  134.8050  133.9150  152.9180 C   0  0  0  0  0  3  0  0  0  0  0  0
  135.4840  134.8520  152.1350 C   0  0  0  0  0  0  0  0  0  0  0  0
  136.0470  135.9640  152.7720 C   0  0  0  0  0  3  0  0  0  0  0  0
  135.9440  136.1450  154.1610 C   0  0  0  0  0  0  0  0  0  0  0  0
  134.3150  134.5330  157.0290 C   0  0  0  0  0  1  0  0  0  0  0  0
  135.0720  135.4700  156.2720 O   0  0  0  0  0  0  0  0  0  0  0  0
  136.5510  137.2960  154.6000 O   0  0  0  0  0  0  0  0  0  0  0  0
  137.9440  137.4200  154.3420 C   0  0  0  0  0  1  0  0  0  0  0  0
  143.5260  135.6000  149.0940 C   0  0  0  0  0  2  0  0  0  0  0  0
  144.6250  135.6060  150.0370 N   0  0  0  0  0  0  0  0  0  0  0  0
  145.9340  135.6980  149.6280 C   0  0  0  0  0  0  0  0  0  0  0  0
  146.2670  135.7610  148.4470 O   0  0  0  0  0  0  0  0  0  0  0  0
  144.4290  135.5430  151.0000 H   0  0  0  0  0  0  0  0  0  0  0  0
  146.9460  135.7130  150.7610 C   0  0  0  0  0  2  0  0  0  0  0  0
  146.6250  136.7250  151.8330 C   0  0  0  0  0  0  0  0  0  0  0  0
  145.9280  136.3480  152.9820 C   0  0  0  0  0  3  0  0  0  0  0  0
  145.6250  137.2860  153.9740 C   0  0  0  0  0  3  0  0  0  0  0  0
  146.0220  138.6260  153.8470 C   0  0  0  0  0  0  0  0  0  0  0  0
  146.7650  139.0020  152.7150 C   0  0  0  0  0  0  0  0  0  0  0  0
  147.0420  138.0570  151.7140 C   0  0  0  0  0  3  0  0  0  0  0  0
  145.7040  139.5950  154.7600 O   0  0  0  0  0  0  0  0  0  0  0  0
  144.3630  139.6630  155.2270 C   0  0  0  0  0  1  0  0  0  0  0  0
  147.2420  140.2540  152.4150 O   0  0  0  0  0  0  0  0  0  0  0  0
  148.5520  140.5670  152.8750 C   0  0  0  0  0  1  0  0  0  0  0  0
  1  2  1  0  0  0  0
  2  3  2  0  0  0  0
  4  3  1  0  0  0  0
  5  4  2  0  0  0  0
  6  1  2  0  0  0  0
  6  5  1  0  0  0  0
  7  1  1  0  0  0  0
  7 10  1  0  0  0  0
  8 12  1  0  0  0  0
  9  8  2  0  0  0  0
 10 11  1  0  0  0  0
 10  8  1  0  0  0  0
 12 16  1  0  0  0  0
 13 20  1  0  0  0  0
 14 13  1  0  0  0  0
 15 14  2  0  0  0  0
 16 17  2  0  0  0  0
 16 15  1  0  0  0  0
 17 18  1  0  0  0  0
 18 21  1  0  0  0  0
 18 13  2  0  0  0  0
 20 19  1  0  0  0  0
 22 21  1  0  0  0  0
 23  5  1  0  0  0  0
 23 24  1  0  0  0  0
 24 27  1  0  0  0  0
 25 24  1  0  0  0  0
 25 28  1  0  0  0  0
 26 25  2  0  0  0  0
 28 29  1  0  0  0  0
 29 30  1  0  0  0  0
 30 31  2  0  0  0  0
 32 31  1  0  0  0  0
 32 35  1  0  0  0  0
 33 32  2  0  0  0  0
 34 29  2  0  0  0  0
 34 33  1  0  0  0  0
 35 36  1  0  0  0  0
 37 33  1  0  0  0  0
 37 38  1  0  0  0  0
M  END
>  <MODEL>
7

>  <REMARK>
 VINA RESULT:    -7.867      5.644      9.234
 INTER + INTRA:         -14.735
 INTER:                 -13.407
 INTRA:                  -1.328
 UNBOUND:                -1.350
  Name = CHEMBL1698783
  16 active torsions:
  status: ('A' for Active; 'I' for Inactive)
    1  A    between atoms: C_1  and  O_2
    2  A    between atoms: O_2  and  C_3
    3  A    between atoms: C_6  and  C_7
    4  A    between atoms: C_7  and  C_8
    5  A    between atoms: N_10  and  C_11
    6  A    between atoms: C_11  and  C_12
    7  A    between atoms: C_16  and  C_17
    8  A    between atoms: C_17  and  N_18
    9  A    between atoms: C_19  and  C_21
   10  A    between atoms: C_21  and  C_22
   11  A    between atoms: C_25  and  O_26
   12  A    between atoms: O_26  and  C_27
   13  A    between atoms: C_28  and  O_29
   14  A    between atoms: O_29  and  C_30
   15  A    between atoms: C_34  and  O_35
   16  A    between atoms: O_35  and  C_36
                            x       y       z     vdW  Elec       q    Type
                         _______ _______ _______ _____ _____    ______ ____

>  <TORSDO>
F 12

>  <SCORE>
-7.867

>  <RMSD_LB>
5.644

>  <RMSD_UB>
9.234

$$$$
CHEMBL1698783
 OpenBabel10172501003D

 38 40  0  0  0  0  0  0  0  0999 V2000
  137.1300  138.5890  146.5760 C   0  0  0  0  0  0  0  0  0  0  0  0
  138.2690  137.9470  146.0760 C   0  0  0  0  0  3  0  0  0  0  0  0
  139.3970  137.7710  146.8820 C   0  0  0  0  0  3  0  0  0  0  0  0
  139.4040  138.2470  148.1970 C   0  0  0  0  0  3  0  0  0  0  0  0
  138.2720  138.8870  148.7180 C   0  0  0  0  0  0  0  0  0  0  0  0
  137.1320  139.0210  147.9120 C   0  0  0  0  0  3  0  0  0  0  0  0
  135.9530  138.9060  145.6930 C   0  0  0  0  0  2  0  0  0  0  0  0
  134.0470  137.4040  145.8260 C   0  0  0  0  0  0  0  0  0  0  0  0
  134.5390  136.6640  144.9730 O   0  0  0  0  0  0  0  0  0  0  0  0
  134.6750  138.5530  146.2660 N   0  0  0  0  0  0  0  0  0  0  0  0
  134.2590  139.1200  146.9560 H   0  0  0  0  0  0  0  0  0  0  0  0
  132.7210  137.0840  146.4880 C   0  0  0  0  0  2  0  0  0  0  0  0
  132.9410  135.0930  150.3450 C   0  0  0  0  0  0  0  0  0  0  0  0
  132.6870  136.4690  150.2610 C   0  0  0  0  0  3  0  0  0  0  0  0
  132.6270  137.1170  149.0200 C   0  0  0  0  0  3  0  0  0  0  0  0
  132.8360  136.4090  147.8340 C   0  0  0  0  0  0  0  0  0  0  0  0
  133.0910  135.0350  147.9190 C   0  0  0  0  0  3  0  0  0  0  0  0
  133.1330  134.3710  149.1560 C   0  0  0  0  0  0  0  0  0  0  0  0
  134.4200  134.2570  152.0180 C   0  0  0  0  0  1  0  0  0  0  0  0
  133.0930  134.4350  151.5360 O   0  0  0  0  0  0  0  0  0  0  0  0
  133.4040  133.0290  149.0370 O   0  0  0  0  0  0  0  0  0  0  0  0
  134.3500  132.6560  148.0430 C   0  0  0  0  0  1  0  0  0  0  0  0
  138.2710  139.4640  150.1140 C   0  0  0  0  0  2  0  0  0  0  0  0
  139.4200  138.9900  150.8570 N   0  0  0  0  0  0  0  0  0  0  0  0
  139.2920  138.1620  151.9460 C   0  0  0  0  0  0  0  0  0  0  0  0
  138.2060  137.7810  152.3770 O   0  0  0  0  0  0  0  0  0  0  0  0
  140.3210  139.2710  150.5730 H   0  0  0  0  0  0  0  0  0  0  0  0
  140.6090  137.7520  152.5820 C   0  0  0  0  0  2  0  0  0  0  0  0
  141.8000  137.9780  151.6840 C   0  0  0  0  0  0  0  0  0  0  0  0
  142.2270  136.9830  150.8030 C   0  0  0  0  0  3  0  0  0  0  0  0
  143.3340  137.1890  149.9740 C   0  0  0  0  0  3  0  0  0  0  0  0
  144.0370  138.4020  149.9960 C   0  0  0  0  0  0  0  0  0  0  0  0
  143.5850  139.4270  150.8450 C   0  0  0  0  0  0  0  0  0  0  0  0
  142.4870  139.1990  151.6910 C   0  0  0  0  0  3  0  0  0  0  0  0
  145.1590  138.6370  149.2470 O   0  0  0  0  0  0  0  0  0  0  0  0
  144.9950  138.9120  147.8620 C   0  0  0  0  0  1  0  0  0  0  0  0
  144.1330  140.6750  151.0050 O   0  0  0  0  0  0  0  0  0  0  0  0
  145.1000  140.8220  152.0380 C   0  0  0  0  0  1  0  0  0  0  0  0
  1  6  1  0  0  0  0
  2  1  2  0  0  0  0
  2  3  1  0  0  0  0
  3  4  2  0  0  0  0
  4  5  1  0  0  0  0
  5 23  1  0  0  0  0
  6  5  2  0  0  0  0
  7 10  1  0  0  0  0
  7  1  1  0  0  0  0
  8 10  1  0  0  0  0
  8 12  1  0  0  0  0
  9  8  2  0  0  0  0
 10 11  1  0  0  0  0
 12 16  1  0  0  0  0
 13 20  1  0  0  0  0
 14 13  1  0  0  0  0
 15 14  2  0  0  0  0
 16 17  2  0  0  0  0
 16 15  1  0  0  0  0
 17 18  1  0  0  0  0
 18 13  2  0  0  0  0
 20 19  1  0  0  0  0
 21 18  1  0  0  0  0
 22 21  1  0  0  0  0
 23 24  1  0  0  0  0
 24 25  1  0  0  0  0
 25 26  2  0  0  0  0
 25 28  1  0  0  0  0
 27 24  1  0  0  0  0
 29 34  1  0  0  0  0
 29 28  1  0  0  0  0
 30 29  2  0  0  0  0
 31 32  2  0  0  0  0
 31 30  1  0  0  0  0
 32 33  1  0  0  0  0
 33 37  1  0  0  0  0
 33 34  2  0  0  0  0
 35 32  1  0  0  0  0
 36 35  1  0  0  0  0
 37 38  1  0  0  0  0
M  END
>  <MODEL>
8

>  <REMARK>
 VINA RESULT:    -7.608      3.631      8.754
 INTER + INTRA:         -14.296
 INTER:                 -12.632
 INTRA:                  -1.663
 UNBOUND:                -1.350
  Name = CHEMBL1698783
  16 active torsions:
  status: ('A' for Active; 'I' for Inactive)
    1  A    between atoms: C_1  and  O_2
    2  A    between atoms: O_2  and  C_3
    3  A    between atoms: C_6  and  C_7
    4  A    between atoms: C_7  and  C_8
    5  A    between atoms: N_10  and  C_11
    6  A    between atoms: C_11  and  C_12
    7  A    between atoms: C_16  and  C_17
    8  A    between atoms: C_17  and  N_18
    9  A    between atoms: C_19  and  C_21
   10  A    between atoms: C_21  and  C_22
   11  A    between atoms: C_25  and  O_26
   12  A    between atoms: O_26  and  C_27
   13  A    between atoms: C_28  and  O_29
   14  A    between atoms: O_29  and  C_30
   15  A    between atoms: C_34  and  O_35
   16  A    between atoms: O_35  and  C_36
                            x       y       z     vdW  Elec       q    Type
                         _______ _______ _______ _____ _____    ______ ____

>  <TORSDO>
F 12

>  <SCORE>
-7.608

>  <RMSD_LB>
3.631

>  <RMSD_UB>
8.754

$$$$
CHEMBL1698783
 OpenBabel10172501003D

 38 40  0  0  0  0  0  0  0  0999 V2000
  137.7020  135.7610  149.5810 C   0  0  0  0  0  0  0  0  0  0  0  0
  138.6890  135.3130  148.6950 C   0  0  0  0  0  3  0  0  0  0  0  0
  139.9850  135.8320  148.7550 C   0  0  0  0  0  3  0  0  0  0  0  0
  140.3080  136.8150  149.6940 C   0  0  0  0  0  3  0  0  0  0  0  0
  139.3360  137.2720  150.5940 C   0  0  0  0  0  0  0  0  0  0  0  0
  138.0500  136.7140  150.5500 C   0  0  0  0  0  3  0  0  0  0  0  0
  136.2700  135.3150  149.4550 C   0  0  0  0  0  2  0  0  0  0  0  0
  134.6060  134.5770  147.8460 C   0  0  0  0  0  0  0  0  0  0  0  0
  133.6920  134.8810  148.6140 O   0  0  0  0  0  0  0  0  0  0  0  0
  135.9370  134.7580  148.1650 N   0  0  0  0  0  0  0  0  0  0  0  0
  136.6450  134.5120  147.5250 H   0  0  0  0  0  0  0  0  0  0  0  0
  134.3300  134.0110  146.4670 C   0  0  0  0  0  2  0  0  0  0  0  0
  135.1890  136.6530  143.1260 C   0  0  0  0  0  0  0  0  0  0  0  0
  135.9000  135.4580  143.2960 C   0  0  0  0  0  3  0  0  0  0  0  0
  135.6340  134.6090  144.3780 C   0  0  0  0  0  3  0  0  0  0  0  0
  134.6630  134.9420  145.3260 C   0  0  0  0  0  0  0  0  0  0  0  0
  133.9540  136.1370  145.1550 C   0  0  0  0  0  3  0  0  0  0  0  0
  134.1970  136.9860  144.0630 C   0  0  0  0  0  0  0  0  0  0  0  0
  134.9180  137.3020  140.8470 C   0  0  0  0  0  1  0  0  0  0  0  0
  135.4720  137.5540  142.1330 O   0  0  0  0  0  0  0  0  0  0  0  0
  133.4100  138.1120  144.0720 O   0  0  0  0  0  0  0  0  0  0  0  0
  133.3640  138.8470  145.2880 C   0  0  0  0  0  1  0  0  0  0  0  0
  139.6380  138.3760  151.5800 C   0  0  0  0  0  2  0  0  0  0  0  0
  139.7190  137.8450  152.9240 N   0  0  0  0  0  0  0  0  0  0  0  0
  139.3120  138.5690  154.0180 C   0  0  0  0  0  0  0  0  0  0  0  0
  138.8730  139.7140  153.9420 O   0  0  0  0  0  0  0  0  0  0  0  0
  140.0760  136.9370  153.0580 H   0  0  0  0  0  0  0  0  0  0  0  0
  139.4510  137.8380  155.3430 C   0  0  0  0  0  2  0  0  0  0  0  0
  138.1990  137.1020  155.7510 C   0  0  0  0  0  0  0  0  0  0  0  0
  138.0890  136.5330  157.0210 C   0  0  0  0  0  3  0  0  0  0  0  0
  136.9320  135.8460  157.3990 C   0  0  0  0  0  3  0  0  0  0  0  0
  135.8470  135.7200  156.5190 C   0  0  0  0  0  0  0  0  0  0  0  0
  135.9310  136.3310  155.2560 C   0  0  0  0  0  0  0  0  0  0  0  0
  137.1080  136.9960  154.8780 C   0  0  0  0  0  3  0  0  0  0  0  0
  134.7130  135.0110  156.8170 O   0  0  0  0  0  0  0  0  0  0  0  0
  134.4650  134.6850  158.1780 C   0  0  0  0  0  1  0  0  0  0  0  0
  134.9810  136.3210  154.2650 O   0  0  0  0  0  0  0  0  0  0  0  0
  135.3850  135.8180  152.9960 C   0  0  0  0  0  1  0  0  0  0  0  0
  1  6  1  0  0  0  0
  2  3  1  0  0  0  0
  2  1  2  0  0  0  0
  3  4  2  0  0  0  0
  4  5  1  0  0  0  0
  5 23  1  0  0  0  0
  6  5  2  0  0  0  0
  7  1  1  0  0  0  0
  8 10  1  0  0  0  0
  8  9  2  0  0  0  0
 10  7  1  0  0  0  0
 11 10  1  0  0  0  0
 12  8  1  0  0  0  0
 13 14  2  0  0  0  0
 13 18  1  0  0  0  0
 14 15  1  0  0  0  0
 15 16  2  0  0  0  0
 16 12  1  0  0  0  0
 17 16  1  0  0  0  0
 18 21  1  0  0  0  0
 18 17  2  0  0  0  0
 19 20  1  0  0  0  0
 20 13  1  0  0  0  0
 21 22  1  0  0  0  0
 23 24  1  0  0  0  0
 24 27  1  0  0  0  0
 24 25  1  0  0  0  0
 25 28  1  0  0  0  0
 26 25  2  0  0  0  0
 28 29  1  0  0  0  0
 29 30  1  0  0  0  0
 30 31  2  0  0  0  0
 32 35  1  0  0  0  0
 32 31  1  0  0  0  0
 33 32  2  0  0  0  0
 34 33  1  0  0  0  0
 34 29  2  0  0  0  0
 35 36  1  0  0  0  0
 37 33  1  0  0  0  0
 38 37  1  0  0  0  0
M  END
>  <MODEL>
9

>  <REMARK>
 VINA RESULT:    -7.466      2.298      9.342
 INTER + INTRA:         -14.053
 INTER:                 -12.704
 INTRA:                  -1.350
 UNBOUND:                -1.350
  Name = CHEMBL1698783
  16 active torsions:
  status: ('A' for Active; 'I' for Inactive)
    1  A    between atoms: C_1  and  O_2
    2  A    between atoms: O_2  and  C_3
    3  A    between atoms: C_6  and  C_7
    4  A    between atoms: C_7  and  C_8
    5  A    between atoms: N_10  and  C_11
    6  A    between atoms: C_11  and  C_12
    7  A    between atoms: C_16  and  C_17
    8  A    between atoms: C_17  and  N_18
    9  A    between atoms: C_19  and  C_21
   10  A    between atoms: C_21  and  C_22
   11  A    between atoms: C_25  and  O_26
   12  A    between atoms: O_26  and  C_27
   13  A    between atoms: C_28  and  O_29
   14  A    between atoms: O_29  and  C_30
   15  A    between atoms: C_34  and  O_35
   16  A    between atoms: O_35  and  C_36
                            x       y       z     vdW  Elec       q    Type
                         _______ _______ _______ _____ _____    ______ ____

>  <TORSDO>
F 12

>  <SCORE>
-7.466

>  <RMSD_LB>
2.298

>  <RMSD_UB>
9.342

$$$$
