CHEMBL366352
 OpenBabel10172500343D

 33 33  0  0  1  0  0  0  0  0999 V2000
  137.1150  136.5120  155.4930 C   0  0  0  0  0  0  0  0  0  0  0  0
  137.9140  136.6970  156.6220 C   0  0  0  0  0  3  0  0  0  0  0  0
  139.0810  137.4640  156.5490 C   0  0  0  0  0  3  0  0  0  0  0  0
  139.4730  138.0690  155.3460 C   0  0  0  0  0  0  0  0  0  0  0  0
  138.6580  137.9070  154.2120 C   0  0  0  0  0  0  0  0  0  0  0  0
  137.4780  137.1530  154.3020 C   0  0  0  0  0  3  0  0  0  0  0  0
  138.8470  138.4580  152.9680 O   0  0  0  0  0  0  0  0  0  0  0  0
  138.4160  137.6960  151.8500 C   0  0  0  0  0  1  0  0  0  0  0  0
  135.8760  135.6630  155.5670 C   0  0  0  0  0  2  0  0  0  0  0  0
  134.5810  134.2960  154.0060 C   0  0  0  0  0  0  0  0  0  0  0  0
  134.2970  133.4670  154.8630 O   0  0  0  0  0  0  0  0  0  0  0  0
  135.3260  135.4220  154.2610 N   0  0  0  0  0  0  0  0  0  0  0  0
  135.4840  136.0730  153.5390 H   0  0  0  0  0  0  0  0  0  0  0  0
  134.1380  134.1560  152.5640 C   0  0  0  0  0  2  0  0  0  0  0  0
  133.8800  135.5270  151.9430 C   0  0  0  0  0  2  0  0  0  0  0  0
  132.8740  135.4620  150.7970 C   0  0  0  0  0  2  0  0  0  0  0  0
  132.4480  134.0140  150.5530 C   0  0  0  0  0  2  0  0  0  0  0  0
  132.7620  133.5590  149.1280 C   0  0  0  0  0  2  0  0  0  0  0  0
  134.0760  132.7800  149.0860 C   0  0  0  0  0  2  0  0  0  0  0  0
  135.9390  134.4620  148.8920 C   0  0  0  0  0  1  0  0  0  0  0  0
  135.0880  133.4420  148.1520 C   0  0  0  0  0  2  0  0  0  0  0  0
  140.6070  138.8230  155.2210 O   0  0  0  0  0  0  0  0  0  0  0  0
  141.8400  138.1540  154.9340 C   0  0  0  0  0  2  0  0  0  0  0  0
  142.8780  139.2130  154.5270 C   0  0  1  0  0  3  0  0  0  0  0  0
  144.1380  138.8990  155.1370 O   0  0  0  0  0  0  0  0  0  0  0  0
  144.5460  139.7130  155.4710 H   0  0  0  0  0  0  0  0  0  0  0  0
  143.0690  139.2910  152.9980 C   0  0  0  0  0  2  0  0  0  0  0  0
  141.7880  139.3060  152.2890 N   0  0  0  0  0  4  0  0  0  0  0  0
  141.4800  140.2740  152.1990 H   0  0  0  0  0  0  0  0  0  0  0  0
  141.1390  138.7400  152.8360 H   0  0  0  0  0  0  0  0  0  0  0  0
  141.8450  138.7120  150.9470 C   0  0  0  0  0  3  0  0  0  0  0  0
  142.9720  139.2880  150.0850 C   0  0  0  0  0  1  0  0  0  0  0  0
  142.0570  137.2060  151.1170 C   0  0  0  0  0  1  0  0  0  0  0  0
  1  9  1  0  0  0  0
  1  2  1  0  0  0  0
  3  2  2  0  0  0  0
  4  3  1  0  0  0  0
  5  6  1  0  0  0  0
  5  4  2  0  0  0  0
  6  1  2  0  0  0  0
  7  5  1  0  0  0  0
  8  7  1  0  0  0  0
 10 12  1  0  0  0  0
 10 11  2  0  0  0  0
 12  9  1  0  0  0  0
 13 12  1  0  0  0  0
 14 10  1  0  0  0  0
 15 14  1  0  0  0  0
 16 15  1  0  0  0  0
 17 16  1  0  0  0  0
 18 17  1  0  0  0  0
 19 18  1  0  0  0  0
 21 20  1  0  0  0  0
 21 19  1  0  0  0  0
 22  4  1  0  0  0  0
 23 22  1  0  0  0  0
 24 27  1  6  0  0  0
 24 23  1  0  0  0  0
 24 25  1  0  0  0  0
 25 26  1  0  0  0  0
 28 30  1  0  0  0  0
 28 27  1  0  0  0  0
 29 28  1  0  0  0  0
 31 33  1  0  0  0  0
 31 28  1  0  0  0  0
 32 31  1  0  0  0  0
M  END
>  <MODEL>
1

>  <REMARK>
 VINA RESULT:    -6.704      0.000      0.000
 INTER + INTRA:         -14.837
 INTER:                 -12.641
 INTRA:                  -2.195
 UNBOUND:                -1.665
  Name = CHEMBL366352
  21 active torsions:
  status: ('A' for Active; 'I' for Inactive)
    1  A    between atoms: C_1  and  C_2
    2  A    between atoms: C_2  and  C_3
    3  A    between atoms: C_3  and  C_4
    4  A    between atoms: C_4  and  C_5
    5  A    between atoms: C_5  and  C_6
    6  A    between atoms: C_6  and  C_7
    7  A    between atoms: C_7  and  C_8
    8  A    between atoms: C_8  and  C_9
    9  A    between atoms: N_11  and  C_12
   10  A    between atoms: C_12  and  C_13
   11  A    between atoms: C_16  and  O_17
   12  A    between atoms: O_17  and  C_18
   13  A    between atoms: C_18  and  C_19
   14  A    between atoms: C_19  and  O_20
   15  A    between atoms: C_19  and  C_21
   16  A    between atoms: C_21  and  N_22
   17  A    between atoms: N_22  and  C_23
   18  A    between atoms: C_23  and  C_24
   19  A    between atoms: C_23  and  C_25
   20  A    between atoms: C_26  and  O_27
   21  A    between atoms: O_27  and  C_28
                            x       y       z     vdW  Elec       q    Type
                         _______ _______ _______ _____ _____    ______ ____

>  <TORSDO>
F 17

>  <SCORE>
-6.704

>  <RMSD_LB>
0.000

>  <RMSD_UB>
0.000

$$$$
CHEMBL366352
 OpenBabel10172500343D

 33 33  0  0  1  0  0  0  0  0999 V2000
  139.1980  137.7630  151.6620 C   0  0  0  0  0  0  0  0  0  0  0  0
  140.4110  137.3730  151.0940 C   0  0  0  0  0  3  0  0  0  0  0  0
  141.5960  137.4410  151.8320 C   0  0  0  0  0  3  0  0  0  0  0  0
  141.5960  137.8940  153.1580 C   0  0  0  0  0  0  0  0  0  0  0  0
  140.3730  138.2640  153.7450 C   0  0  0  0  0  0  0  0  0  0  0  0
  139.1860  138.1720  153.0010 C   0  0  0  0  0  3  0  0  0  0  0  0
  140.1640  138.6830  155.0370 O   0  0  0  0  0  0  0  0  0  0  0  0
  139.0860  138.0880  155.7440 C   0  0  0  0  0  1  0  0  0  0  0  0
  137.9290  137.7170  150.8570 C   0  0  0  0  0  2  0  0  0  0  0  0
  136.4610  135.8680  151.4990 C   0  0  0  0  0  0  0  0  0  0  0  0
  135.8830  136.5350  152.3490 O   0  0  0  0  0  0  0  0  0  0  0  0
  137.4580  136.3670  150.6970 N   0  0  0  0  0  0  0  0  0  0  0  0
  137.8550  135.7940  150.0010 H   0  0  0  0  0  0  0  0  0  0  0  0
  136.1330  134.4110  151.2500 C   0  0  0  0  0  2  0  0  0  0  0  0
  134.7100  134.0920  151.7020 C   0  0  0  0  0  2  0  0  0  0  0  0
  133.9570  133.2410  150.6820 C   0  0  0  0  0  2  0  0  0  0  0  0
  132.8850  134.0820  149.9870 C   0  0  0  0  0  2  0  0  0  0  0  0
  132.4680  135.2850  150.8300 C   0  0  0  0  0  2  0  0  0  0  0  0
  132.7900  136.5920  150.1050 C   0  0  0  0  0  2  0  0  0  0  0  0
  134.6250  136.9090  148.4120 C   0  0  0  0  0  1  0  0  0  0  0  0
  133.2400  136.3380  148.6680 C   0  0  0  0  0  2  0  0  0  0  0  0
  142.7280  137.9850  153.9200 O   0  0  0  0  0  0  0  0  0  0  0  0
  143.8870  138.6010  153.3460 C   0  0  0  0  0  2  0  0  0  0  0  0
  144.6940  139.2560  154.4790 C   0  0  1  0  0  3  0  0  0  0  0  0
  145.4740  138.2520  155.1450 O   0  0  0  0  0  0  0  0  0  0  0  0
  145.8430  138.6190  155.9620 H   0  0  0  0  0  0  0  0  0  0  0  0
  145.6390  140.3620  153.9660 C   0  0  0  0  0  2  0  0  0  0  0  0
  145.1110  141.0140  152.7650 N   0  0  0  0  0  4  0  0  0  0  0  0
  144.5410  141.8080  153.0540 H   0  0  0  0  0  0  0  0  0  0  0  0
  144.5720  140.3110  152.2570 H   0  0  0  0  0  0  0  0  0  0  0  0
  146.1500  141.4990  151.8480 C   0  0  0  0  0  3  0  0  0  0  0  0
  145.6280  142.5280  150.8420 C   0  0  0  0  0  1  0  0  0  0  0  0
  147.2540  142.1340  152.6960 C   0  0  0  0  0  1  0  0  0  0  0  0
  1  6  1  0  0  0  0
  2  1  2  0  0  0  0
  2  3  1  0  0  0  0
  3  4  2  0  0  0  0
  4  5  1  0  0  0  0
  4 22  1  0  0  0  0
  5  7  1  0  0  0  0
  6  5  2  0  0  0  0
  7  8  1  0  0  0  0
  9  1  1  0  0  0  0
 10 11  2  0  0  0  0
 12  9  1  0  0  0  0
 12 10  1  0  0  0  0
 13 12  1  0  0  0  0
 14 10  1  0  0  0  0
 14 15  1  0  0  0  0
 16 15  1  0  0  0  0
 17 16  1  0  0  0  0
 17 18  1  0  0  0  0
 19 18  1  0  0  0  0
 20 21  1  0  0  0  0
 21 19  1  0  0  0  0
 23 22  1  0  0  0  0
 24 23  1  6  0  0  0
 24 25  1  0  0  0  0
 25 26  1  0  0  0  0
 27 24  1  0  0  0  0
 28 29  1  0  0  0  0
 28 27  1  0  0  0  0
 30 28  1  0  0  0  0
 31 33  1  0  0  0  0
 31 28  1  0  0  0  0
 32 31  1  0  0  0  0
M  END
>  <MODEL>
2

>  <REMARK>
 VINA RESULT:    -6.638      2.429      3.739
 INTER + INTRA:         -14.707
 INTER:                 -13.122
 INTRA:                  -1.585
 UNBOUND:                -1.665
  Name = CHEMBL366352
  21 active torsions:
  status: ('A' for Active; 'I' for Inactive)
    1  A    between atoms: C_1  and  C_2
    2  A    between atoms: C_2  and  C_3
    3  A    between atoms: C_3  and  C_4
    4  A    between atoms: C_4  and  C_5
    5  A    between atoms: C_5  and  C_6
    6  A    between atoms: C_6  and  C_7
    7  A    between atoms: C_7  and  C_8
    8  A    between atoms: C_8  and  C_9
    9  A    between atoms: N_11  and  C_12
   10  A    between atoms: C_12  and  C_13
   11  A    between atoms: C_16  and  O_17
   12  A    between atoms: O_17  and  C_18
   13  A    between atoms: C_18  and  C_19
   14  A    between atoms: C_19  and  O_20
   15  A    between atoms: C_19  and  C_21
   16  A    between atoms: C_21  and  N_22
   17  A    between atoms: N_22  and  C_23
   18  A    between atoms: C_23  and  C_24
   19  A    between atoms: C_23  and  C_25
   20  A    between atoms: C_26  and  O_27
   21  A    between atoms: O_27  and  C_28
                            x       y       z     vdW  Elec       q    Type
                         _______ _______ _______ _____ _____    ______ ____

>  <TORSDO>
F 17

>  <SCORE>
-6.638

>  <RMSD_LB>
2.429

>  <RMSD_UB>
3.739

$$$$
CHEMBL366352
 OpenBabel10172500343D

 33 33  0  0  1  0  0  0  0  0999 V2000
  142.0140  137.4830  152.0670 C   0  0  0  0  0  0  0  0  0  0  0  0
  142.5860  137.8400  153.2880 C   0  0  0  0  0  3  0  0  0  0  0  0
  141.7870  138.3000  154.3400 C   0  0  0  0  0  3  0  0  0  0  0  0
  140.3970  138.4060  154.1980 C   0  0  0  0  0  0  0  0  0  0  0  0
  139.8110  138.0230  152.9770 C   0  0  0  0  0  0  0  0  0  0  0  0
  140.6210  137.5440  151.9360 C   0  0  0  0  0  3  0  0  0  0  0  0
  138.4740  138.0090  152.6660 O   0  0  0  0  0  0  0  0  0  0  0  0
  138.1040  137.4200  151.4280 C   0  0  0  0  0  1  0  0  0  0  0  0
  142.8780  137.0170  150.9280 C   0  0  0  0  0  2  0  0  0  0  0  0
  145.1410  136.1920  150.5030 C   0  0  0  0  0  0  0  0  0  0  0  0
  144.9290  136.0290  149.3080 O   0  0  0  0  0  0  0  0  0  0  0  0
  144.2080  136.6990  151.3740 N   0  0  0  0  0  0  0  0  0  0  0  0
  144.4530  136.8470  152.3170 H   0  0  0  0  0  0  0  0  0  0  0  0
  146.4670  135.8420  151.1470 C   0  0  0  0  0  2  0  0  0  0  0  0
  147.3440  137.0830  151.2870 C   0  0  0  0  0  2  0  0  0  0  0  0
  147.6300  137.4280  152.7470 C   0  0  0  0  0  2  0  0  0  0  0  0
  146.6630  138.5110  153.2300 C   0  0  0  0  0  2  0  0  0  0  0  0
  146.4180  139.5740  152.1610 C   0  0  0  0  0  2  0  0  0  0  0  0
  145.6040  140.7360  152.7300 C   0  0  0  0  0  2  0  0  0  0  0  0
  147.6430  141.8910  151.8130 C   0  0  0  0  0  1  0  0  0  0  0  0
  146.3510  142.0610  152.5940 C   0  0  0  0  0  2  0  0  0  0  0  0
  139.5730  138.8550  155.1930 O   0  0  0  0  0  0  0  0  0  0  0  0
  139.0500  137.9010  156.1240 C   0  0  0  0  0  2  0  0  0  0  0  0
  137.5220  138.0670  156.1750 C   0  0  1  0  0  3  0  0  0  0  0  0
  137.1130  138.9930  155.1590 O   0  0  0  0  0  0  0  0  0  0  0  0
  137.0880  138.5410  154.3010 H   0  0  0  0  0  0  0  0  0  0  0  0
  136.7770  136.7330  155.9630 C   0  0  0  0  0  2  0  0  0  0  0  0
  136.6720  136.3880  154.5430 N   0  0  0  0  0  4  0  0  0  0  0  0
  137.5830  136.0600  154.2230 H   0  0  0  0  0  0  0  0  0  0  0  0
  136.3670  137.2310  154.0540 H   0  0  0  0  0  0  0  0  0  0  0  0
  135.6780  135.3460  154.2580 C   0  0  0  0  0  3  0  0  0  0  0  0
  134.2450  135.7820  154.5760 C   0  0  0  0  0  1  0  0  0  0  0  0
  135.7840  135.0020  152.7710 C   0  0  0  0  0  1  0  0  0  0  0  0
  1  2  1  0  0  0  0
  2  3  2  0  0  0  0
  4  3  1  0  0  0  0
  4 22  1  0  0  0  0
  5  4  2  0  0  0  0
  6  1  2  0  0  0  0
  6  5  1  0  0  0  0
  7  5  1  0  0  0  0
  8  7  1  0  0  0  0
  9 12  1  0  0  0  0
  9  1  1  0  0  0  0
 10 14  1  0  0  0  0
 10 12  1  0  0  0  0
 11 10  2  0  0  0  0
 12 13  1  0  0  0  0
 14 15  1  0  0  0  0
 15 16  1  0  0  0  0
 16 17  1  0  0  0  0
 18 19  1  0  0  0  0
 18 17  1  0  0  0  0
 20 21  1  0  0  0  0
 21 19  1  0  0  0  0
 22 23  1  0  0  0  0
 23 24  1  0  0  0  0
 24 27  1  6  0  0  0
 25 24  1  0  0  0  0
 26 25  1  0  0  0  0
 28 27  1  0  0  0  0
 29 28  1  0  0  0  0
 30 28  1  0  0  0  0
 31 28  1  0  0  0  0
 31 32  1  0  0  0  0
 33 31  1  0  0  0  0
M  END
>  <MODEL>
3

>  <REMARK>
 VINA RESULT:    -6.617      2.974      9.480
 INTER + INTRA:         -14.666
 INTER:                 -12.464
 INTRA:                  -2.202
 UNBOUND:                -1.665
  Name = CHEMBL366352
  21 active torsions:
  status: ('A' for Active; 'I' for Inactive)
    1  A    between atoms: C_1  and  C_2
    2  A    between atoms: C_2  and  C_3
    3  A    between atoms: C_3  and  C_4
    4  A    between atoms: C_4  and  C_5
    5  A    between atoms: C_5  and  C_6
    6  A    between atoms: C_6  and  C_7
    7  A    between atoms: C_7  and  C_8
    8  A    between atoms: C_8  and  C_9
    9  A    between atoms: N_11  and  C_12
   10  A    between atoms: C_12  and  C_13
   11  A    between atoms: C_16  and  O_17
   12  A    between atoms: O_17  and  C_18
   13  A    between atoms: C_18  and  C_19
   14  A    between atoms: C_19  and  O_20
   15  A    between atoms: C_19  and  C_21
   16  A    between atoms: C_21  and  N_22
   17  A    between atoms: N_22  and  C_23
   18  A    between atoms: C_23  and  C_24
   19  A    between atoms: C_23  and  C_25
   20  A    between atoms: C_26  and  O_27
   21  A    between atoms: O_27  and  C_28
                            x       y       z     vdW  Elec       q    Type
                         _______ _______ _______ _____ _____    ______ ____

>  <TORSDO>
F 17

>  <SCORE>
-6.617

>  <RMSD_LB>
2.974

>  <RMSD_UB>
9.480

$$$$
CHEMBL366352
 OpenBabel10172500343D

 33 33  0  0  1  0  0  0  0  0999 V2000
  142.5230  137.9060  152.5050 C   0  0  0  0  0  0  0  0  0  0  0  0
  141.2030  137.5630  152.2070 C   0  0  0  0  0  3  0  0  0  0  0  0
  140.1700  137.8760  153.0950 C   0  0  0  0  0  3  0  0  0  0  0  0
  140.4300  138.5450  154.2990 C   0  0  0  0  0  0  0  0  0  0  0  0
  141.7540  138.9160  154.5940 C   0  0  0  0  0  0  0  0  0  0  0  0
  142.7810  138.6150  153.6850 C   0  0  0  0  0  3  0  0  0  0  0  0
  142.1970  139.6140  155.6900 O   0  0  0  0  0  0  0  0  0  0  0  0
  143.5760  139.9540  155.7270 C   0  0  0  0  0  1  0  0  0  0  0  0
  143.6360  137.5420  151.5630 C   0  0  0  0  0  2  0  0  0  0  0  0
  146.0260  137.2640  152.0010 C   0  0  0  0  0  0  0  0  0  0  0  0
  146.0440  136.1230  151.5550 O   0  0  0  0  0  0  0  0  0  0  0  0
  144.9000  138.0500  152.0220 N   0  0  0  0  0  0  0  0  0  0  0  0
  144.9600  138.9760  152.3550 H   0  0  0  0  0  0  0  0  0  0  0  0
  147.2570  137.9250  152.5870 C   0  0  0  0  0  2  0  0  0  0  0  0
  147.2840  137.7690  154.1050 C   0  0  0  0  0  2  0  0  0  0  0  0
  146.9580  139.0740  154.8270 C   0  0  0  0  0  2  0  0  0  0  0  0
  148.0650  140.1000  154.5830 C   0  0  0  0  0  2  0  0  0  0  0  0
  147.5100  141.4280  154.0700 C   0  0  0  0  0  2  0  0  0  0  0  0
  148.2500  141.8720  152.8070 C   0  0  0  0  0  2  0  0  0  0  0  0
  145.8900  142.3490  152.0730 C   0  0  0  0  0  1  0  0  0  0  0  0
  147.2990  142.0030  151.6190 C   0  0  0  0  0  2  0  0  0  0  0  0
  139.4560  138.8680  155.2030 O   0  0  0  0  0  0  0  0  0  0  0  0
  138.9430  137.8340  156.0500 C   0  0  0  0  0  2  0  0  0  0  0  0
  137.4950  138.1910  156.4240 C   0  0  1  0  0  3  0  0  0  0  0  0
  136.9010  138.9360  155.3520 O   0  0  0  0  0  0  0  0  0  0  0  0
  136.7600  139.8530  155.6350 H   0  0  0  0  0  0  0  0  0  0  0  0
  136.6340  136.9420  156.7010 C   0  0  0  0  0  2  0  0  0  0  0  0
  136.8940  136.3860  158.0310 N   0  0  0  0  0  4  0  0  0  0  0  0
  137.0830  137.1570  158.6720 H   0  0  0  0  0  0  0  0  0  0  0  0
  137.6890  135.7530  157.9380 H   0  0  0  0  0  0  0  0  0  0  0  0
  135.7810  135.5960  158.5720 C   0  0  0  0  0  3  0  0  0  0  0  0
  134.9680  134.8850  157.4870 C   0  0  0  0  0  1  0  0  0  0  0  0
  136.3730  134.5550  159.5250 C   0  0  0  0  0  1  0  0  0  0  0  0
  1  6  1  0  0  0  0
  2  1  2  0  0  0  0
  2  3  1  0  0  0  0
  3  4  2  0  0  0  0
  4  5  1  0  0  0  0
  4 22  1  0  0  0  0
  5  7  1  0  0  0  0
  6  5  2  0  0  0  0
  7  8  1  0  0  0  0
  9 12  1  0  0  0  0
  9  1  1  0  0  0  0
 10 12  1  0  0  0  0
 10 14  1  0  0  0  0
 11 10  2  0  0  0  0
 12 13  1  0  0  0  0
 14 15  1  0  0  0  0
 15 16  1  0  0  0  0
 17 16  1  0  0  0  0
 18 17  1  0  0  0  0
 19 18  1  0  0  0  0
 21 20  1  0  0  0  0
 21 19  1  0  0  0  0
 22 23  1  0  0  0  0
 24 23  1  6  0  0  0
 24 27  1  0  0  0  0
 25 26  1  0  0  0  0
 25 24  1  0  0  0  0
 27 28  1  0  0  0  0
 28 31  1  0  0  0  0
 28 29  1  0  0  0  0
 30 28  1  0  0  0  0
 31 33  1  0  0  0  0
 32 31  1  0  0  0  0
M  END
>  <MODEL>
4

>  <REMARK>
 VINA RESULT:    -6.541      4.385     10.441
 INTER + INTRA:         -14.516
 INTER:                 -13.063
 INTRA:                  -1.453
 UNBOUND:                -1.665
  Name = CHEMBL366352
  21 active torsions:
  status: ('A' for Active; 'I' for Inactive)
    1  A    between atoms: C_1  and  C_2
    2  A    between atoms: C_2  and  C_3
    3  A    between atoms: C_3  and  C_4
    4  A    between atoms: C_4  and  C_5
    5  A    between atoms: C_5  and  C_6
    6  A    between atoms: C_6  and  C_7
    7  A    between atoms: C_7  and  C_8
    8  A    between atoms: C_8  and  C_9
    9  A    between atoms: N_11  and  C_12
   10  A    between atoms: C_12  and  C_13
   11  A    between atoms: C_16  and  O_17
   12  A    between atoms: O_17  and  C_18
   13  A    between atoms: C_18  and  C_19
   14  A    between atoms: C_19  and  O_20
   15  A    between atoms: C_19  and  C_21
   16  A    between atoms: C_21  and  N_22
   17  A    between atoms: N_22  and  C_23
   18  A    between atoms: C_23  and  C_24
   19  A    between atoms: C_23  and  C_25
   20  A    between atoms: C_26  and  O_27
   21  A    between atoms: O_27  and  C_28
                            x       y       z     vdW  Elec       q    Type
                         _______ _______ _______ _____ _____    ______ ____

>  <TORSDO>
F 17

>  <SCORE>
-6.541

>  <RMSD_LB>
4.385

>  <RMSD_UB>
10.441

$$$$
CHEMBL366352
 OpenBabel10172500343D

 33 33  0  0  1  0  0  0  0  0999 V2000
  140.3050  138.2540  153.3770 C   0  0  0  0  0  0  0  0  0  0  0  0
  141.0050  138.5950  154.5350 C   0  0  0  0  0  3  0  0  0  0  0  0
  142.3860  138.3920  154.6170 C   0  0  0  0  0  3  0  0  0  0  0  0
  143.1010  137.8500  153.5410 C   0  0  0  0  0  0  0  0  0  0  0  0
  142.4060  137.5280  152.3610 C   0  0  0  0  0  0  0  0  0  0  0  0
  141.0230  137.7560  152.2830 C   0  0  0  0  0  3  0  0  0  0  0  0
  142.9350  137.0380  151.1920 O   0  0  0  0  0  0  0  0  0  0  0  0
  142.0270  136.7600  150.1370 C   0  0  0  0  0  1  0  0  0  0  0  0
  138.8160  138.4460  153.3020 C   0  0  0  0  0  2  0  0  0  0  0  0
  137.2930  137.7970  155.1020 C   0  0  0  0  0  0  0  0  0  0  0  0
  137.0580  138.9590  155.4130 O   0  0  0  0  0  0  0  0  0  0  0  0
  138.1190  137.4440  154.0630 N   0  0  0  0  0  0  0  0  0  0  0  0
  138.2340  136.4930  153.8350 H   0  0  0  0  0  0  0  0  0  0  0  0
  136.6940  136.6210  155.8460 C   0  0  0  0  0  2  0  0  0  0  0  0
  136.4320  135.4560  154.8950 C   0  0  0  0  0  2  0  0  0  0  0  0
  135.0180  134.9000  155.0370 C   0  0  0  0  0  2  0  0  0  0  0  0
  134.0090  135.8660  154.4150 C   0  0  0  0  0  2  0  0  0  0  0  0
  134.1630  135.9520  152.8970 C   0  0  0  0  0  2  0  0  0  0  0  0
  133.6970  134.6560  152.2320 C   0  0  0  0  0  2  0  0  0  0  0  0
  132.7430  133.7180  150.1000 C   0  0  0  0  0  1  0  0  0  0  0  0
  132.8340  134.9370  151.0030 C   0  0  0  0  0  2  0  0  0  0  0  0
  144.4500  137.6270  153.5730 O   0  0  0  0  0  0  0  0  0  0  0  0
  145.3270  138.7590  153.5900 C   0  0  0  0  0  2  0  0  0  0  0  0
  146.5600  138.4000  154.4360 C   0  0  1  0  0  3  0  0  0  0  0  0
  147.0380  137.1050  154.0470 O   0  0  0  0  0  0  0  0  0  0  0  0
  147.5020  136.6950  154.7940 H   0  0  0  0  0  0  0  0  0  0  0  0
  147.7020  139.4240  154.2740 C   0  0  0  0  0  2  0  0  0  0  0  0
  147.3540  140.7240  154.8520 N   0  0  0  0  0  4  0  0  0  0  0  0
  147.8500  140.8270  155.7370 H   0  0  0  0  0  0  0  0  0  0  0  0
  146.3400  140.7350  154.9700 H   0  0  0  0  0  0  0  0  0  0  0  0
  147.6950  141.8650  153.9940 C   0  0  0  0  0  3  0  0  0  0  0  0
  148.8380  141.5620  153.0210 C   0  0  0  0  0  1  0  0  0  0  0  0
  146.4410  142.2380  153.2000 C   0  0  0  0  0  1  0  0  0  0  0  0
  1  2  1  0  0  0  0
  2  3  2  0  0  0  0
  4 22  1  0  0  0  0
  4  3  1  0  0  0  0
  5  4  2  0  0  0  0
  6  5  1  0  0  0  0
  6  1  2  0  0  0  0
  7  5  1  0  0  0  0
  8  7  1  0  0  0  0
  9  1  1  0  0  0  0
  9 12  1  0  0  0  0
 10 11  2  0  0  0  0
 10 14  1  0  0  0  0
 12 10  1  0  0  0  0
 13 12  1  0  0  0  0
 15 16  1  0  0  0  0
 15 14  1  0  0  0  0
 17 16  1  0  0  0  0
 18 17  1  0  0  0  0
 19 18  1  0  0  0  0
 20 21  1  0  0  0  0
 21 19  1  0  0  0  0
 22 23  1  0  0  0  0
 24 23  1  6  0  0  0
 25 24  1  0  0  0  0
 25 26  1  0  0  0  0
 27 24  1  0  0  0  0
 27 28  1  0  0  0  0
 28 30  1  0  0  0  0
 28 29  1  0  0  0  0
 31 28  1  0  0  0  0
 32 31  1  0  0  0  0
 33 31  1  0  0  0  0
M  END
>  <MODEL>
5

>  <REMARK>
 VINA RESULT:    -6.458      2.950      4.741
 INTER + INTRA:         -14.352
 INTER:                 -13.170
 INTRA:                  -1.182
 UNBOUND:                -1.665
  Name = CHEMBL366352
  21 active torsions:
  status: ('A' for Active; 'I' for Inactive)
    1  A    between atoms: C_1  and  C_2
    2  A    between atoms: C_2  and  C_3
    3  A    between atoms: C_3  and  C_4
    4  A    between atoms: C_4  and  C_5
    5  A    between atoms: C_5  and  C_6
    6  A    between atoms: C_6  and  C_7
    7  A    between atoms: C_7  and  C_8
    8  A    between atoms: C_8  and  C_9
    9  A    between atoms: N_11  and  C_12
   10  A    between atoms: C_12  and  C_13
   11  A    between atoms: C_16  and  O_17
   12  A    between atoms: O_17  and  C_18
   13  A    between atoms: C_18  and  C_19
   14  A    between atoms: C_19  and  O_20
   15  A    between atoms: C_19  and  C_21
   16  A    between atoms: C_21  and  N_22
   17  A    between atoms: N_22  and  C_23
   18  A    between atoms: C_23  and  C_24
   19  A    between atoms: C_23  and  C_25
   20  A    between atoms: C_26  and  O_27
   21  A    between atoms: O_27  and  C_28
                            x       y       z     vdW  Elec       q    Type
                         _______ _______ _______ _____ _____    ______ ____

>  <TORSDO>
F 17

>  <SCORE>
-6.458

>  <RMSD_LB>
2.950

>  <RMSD_UB>
4.741

$$$$
CHEMBL366352
 OpenBabel10172500343D

 33 33  0  0  1  0  0  0  0  0999 V2000
  134.7790  134.0940  151.5910 C   0  0  0  0  0  0  0  0  0  0  0  0
  135.9640  134.7650  151.2880 C   0  0  0  0  0  3  0  0  0  0  0  0
  136.4280  134.8290  149.9710 C   0  0  0  0  0  3  0  0  0  0  0  0
  135.7130  134.2300  148.9240 C   0  0  0  0  0  0  0  0  0  0  0  0
  134.5040  133.5740  149.2200 C   0  0  0  0  0  0  0  0  0  0  0  0
  134.0390  133.5350  150.5430 C   0  0  0  0  0  3  0  0  0  0  0  0
  133.6460  132.9750  148.3310 O   0  0  0  0  0  0  0  0  0  0  0  0
  132.4930  133.7110  147.9470 C   0  0  0  0  0  1  0  0  0  0  0  0
  134.2980  134.0020  153.0130 C   0  0  0  0  0  2  0  0  0  0  0  0
  134.7390  135.1070  155.1500 C   0  0  0  0  0  0  0  0  0  0  0  0
  133.6220  134.8550  155.5870 O   0  0  0  0  0  0  0  0  0  0  0  0
  135.1740  134.7060  153.9100 N   0  0  0  0  0  0  0  0  0  0  0  0
  136.0980  134.9030  153.6320 H   0  0  0  0  0  0  0  0  0  0  0  0
  135.7590  135.9000  155.9400 C   0  0  0  0  0  2  0  0  0  0  0  0
  137.0760  136.0010  155.1750 C   0  0  0  0  0  2  0  0  0  0  0  0
  138.0080  137.0560  155.7650 C   0  0  0  0  0  2  0  0  0  0  0  0
  137.9140  138.3520  154.9570 C   0  0  0  0  0  2  0  0  0  0  0  0
  138.9650  138.4130  153.8510 C   0  0  0  0  0  2  0  0  0  0  0  0
  138.4140  137.8350  152.5480 C   0  0  0  0  0  2  0  0  0  0  0  0
  140.8950  137.5680  152.2210 C   0  0  0  0  0  1  0  0  0  0  0  0
  139.5320  137.5390  151.5500 C   0  0  0  0  0  2  0  0  0  0  0  0
  136.1260  134.2590  147.6210 O   0  0  0  0  0  0  0  0  0  0  0  0
  137.1640  133.3590  147.2160 C   0  0  0  0  0  2  0  0  0  0  0  0
  136.6070  132.4490  146.1090 C   0  0  1  0  0  3  0  0  0  0  0  0
  136.1040  131.2420  146.6980 O   0  0  0  0  0  0  0  0  0  0  0  0
  136.6720  130.4980  146.4450 H   0  0  0  0  0  0  0  0  0  0  0  0
  135.4750  133.1240  145.3070 C   0  0  0  0  0  2  0  0  0  0  0  0
  135.9610  133.6850  144.0450 N   0  0  0  0  0  4  0  0  0  0  0  0
  135.9930  134.7000  144.1340 H   0  0  0  0  0  0  0  0  0  0  0  0
  135.3180  133.3770  143.3150 H   0  0  0  0  0  0  0  0  0  0  0  0
  137.2980  133.2130  143.6620 C   0  0  0  0  0  3  0  0  0  0  0  0
  137.2720  132.2210  142.4950 C   0  0  0  0  0  1  0  0  0  0  0  0
  138.1250  134.4380  143.2660 C   0  0  0  0  0  1  0  0  0  0  0  0
  1  9  1  0  0  0  0
  2  1  1  0  0  0  0
  3  2  2  0  0  0  0
  4  5  2  0  0  0  0
  4  3  1  0  0  0  0
  5  6  1  0  0  0  0
  6  1  2  0  0  0  0
  7  5  1  0  0  0  0
  8  7  1  0  0  0  0
  9 12  1  0  0  0  0
 10 11  2  0  0  0  0
 10 14  1  0  0  0  0
 12 10  1  0  0  0  0
 13 12  1  0  0  0  0
 15 16  1  0  0  0  0
 15 14  1  0  0  0  0
 17 16  1  0  0  0  0
 18 17  1  0  0  0  0
 19 18  1  0  0  0  0
 21 20  1  0  0  0  0
 21 19  1  0  0  0  0
 22  4  1  0  0  0  0
 23 22  1  0  0  0  0
 24 27  1  1  0  0  0
 24 25  1  0  0  0  0
 24 23  1  0  0  0  0
 26 25  1  0  0  0  0
 28 29  1  0  0  0  0
 28 27  1  0  0  0  0
 30 28  1  0  0  0  0
 31 28  1  0  0  0  0
 32 31  1  0  0  0  0
 33 31  1  0  0  0  0
M  END
>  <MODEL>
6

>  <REMARK>
 VINA RESULT:    -6.394      3.827      8.338
 INTER + INTRA:         -14.227
 INTER:                 -12.562
 INTRA:                  -1.665
 UNBOUND:                -1.665
  Name = CHEMBL366352
  21 active torsions:
  status: ('A' for Active; 'I' for Inactive)
    1  A    between atoms: C_1  and  C_2
    2  A    between atoms: C_2  and  C_3
    3  A    between atoms: C_3  and  C_4
    4  A    between atoms: C_4  and  C_5
    5  A    between atoms: C_5  and  C_6
    6  A    between atoms: C_6  and  C_7
    7  A    between atoms: C_7  and  C_8
    8  A    between atoms: C_8  and  C_9
    9  A    between atoms: N_11  and  C_12
   10  A    between atoms: C_12  and  C_13
   11  A    between atoms: C_16  and  O_17
   12  A    between atoms: O_17  and  C_18
   13  A    between atoms: C_18  and  C_19
   14  A    between atoms: C_19  and  O_20
   15  A    between atoms: C_19  and  C_21
   16  A    between atoms: C_21  and  N_22
   17  A    between atoms: N_22  and  C_23
   18  A    between atoms: C_23  and  C_24
   19  A    between atoms: C_23  and  C_25
   20  A    between atoms: C_26  and  O_27
   21  A    between atoms: O_27  and  C_28
                            x       y       z     vdW  Elec       q    Type
                         _______ _______ _______ _____ _____    ______ ____

>  <TORSDO>
F 17

>  <SCORE>
-6.394

>  <RMSD_LB>
3.827

>  <RMSD_UB>
8.338

$$$$
CHEMBL366352
 OpenBabel10172500343D

 33 33  0  0  1  0  0  0  0  0999 V2000
  132.9930  134.3160  149.8850 C   0  0  0  0  0  0  0  0  0  0  0  0
  133.4910  133.0170  149.7850 C   0  0  0  0  0  3  0  0  0  0  0  0
  133.9930  132.5390  148.5700 C   0  0  0  0  0  3  0  0  0  0  0  0
  134.0150  133.3530  147.4290 C   0  0  0  0  0  0  0  0  0  0  0  0
  133.5380  134.6720  147.5300 C   0  0  0  0  0  0  0  0  0  0  0  0
  133.0570  135.1470  148.7590 C   0  0  0  0  0  3  0  0  0  0  0  0
  133.5240  135.6280  146.5440 O   0  0  0  0  0  0  0  0  0  0  0  0
  134.0070  136.9190  146.8860 C   0  0  0  0  0  1  0  0  0  0  0  0
  132.4280  134.8170  151.1850 C   0  0  0  0  0  2  0  0  0  0  0  0
  134.0640  135.1870  152.9660 C   0  0  0  0  0  0  0  0  0  0  0  0
  134.2010  136.3720  152.6840 O   0  0  0  0  0  0  0  0  0  0  0  0
  133.1960  134.3500  152.3070 N   0  0  0  0  0  0  0  0  0  0  0  0
  133.0990  133.4170  152.6080 H   0  0  0  0  0  0  0  0  0  0  0  0
  134.8490  134.5210  154.0760 C   0  0  0  0  0  2  0  0  0  0  0  0
  135.2570  135.5400  155.1370 C   0  0  0  0  0  2  0  0  0  0  0  0
  136.7500  135.8550  155.0920 C   0  0  0  0  0  2  0  0  0  0  0  0
  137.3140  135.9290  156.5110 C   0  0  0  0  0  2  0  0  0  0  0  0
  136.2540  135.6130  157.5640 C   0  0  0  0  0  2  0  0  0  0  0  0
  136.6570  136.1790  158.9260 C   0  0  0  0  0  2  0  0  0  0  0  0
  137.3800  138.2660  160.1330 C   0  0  0  0  0  1  0  0  0  0  0  0
  136.6540  137.7060  158.9200 C   0  0  0  0  0  2  0  0  0  0  0  0
  134.4890  132.9320  146.2170 O   0  0  0  0  0  0  0  0  0  0  0  0
  135.8620  133.1850  145.8990 C   0  0  0  0  0  2  0  0  0  0  0  0
  135.9370  133.6690  144.4410 C   0  0  1  0  0  3  0  0  0  0  0  0
  135.3720  134.9840  144.3510 O   0  0  0  0  0  0  0  0  0  0  0  0
  135.5640  135.3580  143.4770 H   0  0  0  0  0  0  0  0  0  0  0  0
  137.3840  133.7090  143.9080 C   0  0  0  0  0  2  0  0  0  0  0  0
  137.4340  134.1100  142.5000 N   0  0  0  0  0  4  0  0  0  0  0  0
  138.2970  134.6300  142.3430 H   0  0  0  0  0  0  0  0  0  0  0  0
  136.6020  134.6730  142.3210 H   0  0  0  0  0  0  0  0  0  0  0  0
  137.3960  132.9820  141.5610 C   0  0  0  0  0  3  0  0  0  0  0  0
  138.3850  133.1340  140.4020 C   0  0  0  0  0  1  0  0  0  0  0  0
  137.7310  131.7140  142.3490 C   0  0  0  0  0  1  0  0  0  0  0  0
  1  9  1  0  0  0  0
  2  1  1  0  0  0  0
  3  2  2  0  0  0  0
  4  5  2  0  0  0  0
  4  3  1  0  0  0  0
  5  6  1  0  0  0  0
  6  1  2  0  0  0  0
  7  8  1  0  0  0  0
  7  5  1  0  0  0  0
  9 12  1  0  0  0  0
 10 14  1  0  0  0  0
 11 10  2  0  0  0  0
 12 13  1  0  0  0  0
 12 10  1  0  0  0  0
 14 15  1  0  0  0  0
 16 15  1  0  0  0  0
 16 17  1  0  0  0  0
 17 18  1  0  0  0  0
 18 19  1  0  0  0  0
 21 19  1  0  0  0  0
 21 20  1  0  0  0  0
 22  4  1  0  0  0  0
 23 22  1  0  0  0  0
 24 27  1  1  0  0  0
 24 23  1  0  0  0  0
 25 24  1  0  0  0  0
 26 25  1  0  0  0  0
 28 27  1  0  0  0  0
 29 28  1  0  0  0  0
 30 28  1  0  0  0  0
 31 33  1  0  0  0  0
 31 28  1  0  0  0  0
 32 31  1  0  0  0  0
M  END
>  <MODEL>
7

>  <REMARK>
 VINA RESULT:    -6.371      4.853      9.579
 INTER + INTRA:         -14.181
 INTER:                 -12.933
 INTRA:                  -1.248
 UNBOUND:                -1.665
  Name = CHEMBL366352
  21 active torsions:
  status: ('A' for Active; 'I' for Inactive)
    1  A    between atoms: C_1  and  C_2
    2  A    between atoms: C_2  and  C_3
    3  A    between atoms: C_3  and  C_4
    4  A    between atoms: C_4  and  C_5
    5  A    between atoms: C_5  and  C_6
    6  A    between atoms: C_6  and  C_7
    7  A    between atoms: C_7  and  C_8
    8  A    between atoms: C_8  and  C_9
    9  A    between atoms: N_11  and  C_12
   10  A    between atoms: C_12  and  C_13
   11  A    between atoms: C_16  and  O_17
   12  A    between atoms: O_17  and  C_18
   13  A    between atoms: C_18  and  C_19
   14  A    between atoms: C_19  and  O_20
   15  A    between atoms: C_19  and  C_21
   16  A    between atoms: C_21  and  N_22
   17  A    between atoms: N_22  and  C_23
   18  A    between atoms: C_23  and  C_24
   19  A    between atoms: C_23  and  C_25
   20  A    between atoms: C_26  and  O_27
   21  A    between atoms: O_27  and  C_28
                            x       y       z     vdW  Elec       q    Type
                         _______ _______ _______ _____ _____    ______ ____

>  <TORSDO>
F 17

>  <SCORE>
-6.371

>  <RMSD_LB>
4.853

>  <RMSD_UB>
9.579

$$$$
CHEMBL366352
 OpenBabel10172500343D

 33 33  0  0  1  0  0  0  0  0999 V2000
  142.2150  137.7300  151.3670 C   0  0  0  0  0  0  0  0  0  0  0  0
  142.5230  138.2740  152.6150 C   0  0  0  0  0  3  0  0  0  0  0  0
  141.5100  138.5720  153.5310 C   0  0  0  0  0  3  0  0  0  0  0  0
  140.1640  138.3270  153.2230 C   0  0  0  0  0  0  0  0  0  0  0  0
  139.8490  137.7560  151.9770 C   0  0  0  0  0  0  0  0  0  0  0  0
  140.8760  137.4410  151.0750 C   0  0  0  0  0  3  0  0  0  0  0  0
  138.6040  137.4000  151.5180 O   0  0  0  0  0  0  0  0  0  0  0  0
  138.0740  138.1530  150.4370 C   0  0  0  0  0  1  0  0  0  0  0  0
  143.3040  137.4380  150.3730 C   0  0  0  0  0  2  0  0  0  0  0  0
  145.5620  138.3620  150.1940 C   0  0  0  0  0  0  0  0  0  0  0  0
  146.0890  137.2560  150.2180 O   0  0  0  0  0  0  0  0  0  0  0  0
  144.2030  138.5530  150.2360 N   0  0  0  0  0  0  0  0  0  0  0  0
  143.8380  139.4660  150.1700 H   0  0  0  0  0  0  0  0  0  0  0  0
  146.3680  139.6430  150.1220 C   0  0  0  0  0  2  0  0  0  0  0  0
  145.4820  140.8170  149.7140 C   0  0  0  0  0  2  0  0  0  0  0  0
  145.9400  142.1320  150.3390 C   0  0  0  0  0  2  0  0  0  0  0  0
  145.6170  142.1440  151.8340 C   0  0  0  0  0  2  0  0  0  0  0  0
  146.8750  142.2850  152.6890 C   0  0  0  0  0  2  0  0  0  0  0  0
  146.7310  141.5080  153.9970 C   0  0  0  0  0  2  0  0  0  0  0  0
  145.2180  139.6050  154.6490 C   0  0  0  0  0  1  0  0  0  0  0  0
  146.3550  140.0500  153.7430 C   0  0  0  0  0  2  0  0  0  0  0  0
  139.1360  138.6060  154.0810 O   0  0  0  0  0  0  0  0  0  0  0  0
  139.2430  138.1610  155.4380 C   0  0  0  0  0  2  0  0  0  0  0  0
  137.8230  137.9320  155.9820 C   0  0  1  0  0  3  0  0  0  0  0  0
  136.9760  139.0110  155.5620 O   0  0  0  0  0  0  0  0  0  0  0  0
  136.7870  138.9230  154.6150 H   0  0  0  0  0  0  0  0  0  0  0  0
  137.2130  136.6010  155.4950 C   0  0  0  0  0  2  0  0  0  0  0  0
  136.8750  136.6470  154.0710 N   0  0  0  0  0  4  0  0  0  0  0  0
  137.7140  136.4330  153.5320 H   0  0  0  0  0  0  0  0  0  0  0  0
  136.5170  137.5830  153.8800 H   0  0  0  0  0  0  0  0  0  0  0  0
  135.8220  135.7010  153.6810 C   0  0  0  0  0  3  0  0  0  0  0  0
  134.5190  135.8980  154.4610 C   0  0  0  0  0  1  0  0  0  0  0  0
  135.5520  135.8990  152.1870 C   0  0  0  0  0  1  0  0  0  0  0  0
  1  2  1  0  0  0  0
  2  3  2  0  0  0  0
  4  3  1  0  0  0  0
  4 22  1  0  0  0  0
  5  4  2  0  0  0  0
  6  1  2  0  0  0  0
  6  5  1  0  0  0  0
  7  5  1  0  0  0  0
  8  7  1  0  0  0  0
  9  1  1  0  0  0  0
 10 11  2  0  0  0  0
 10 12  1  0  0  0  0
 12  9  1  0  0  0  0
 13 12  1  0  0  0  0
 14 10  1  0  0  0  0
 15 14  1  0  0  0  0
 15 16  1  0  0  0  0
 16 17  1  0  0  0  0
 17 18  1  0  0  0  0
 18 19  1  0  0  0  0
 21 19  1  0  0  0  0
 21 20  1  0  0  0  0
 22 23  1  0  0  0  0
 24 23  1  6  0  0  0
 25 24  1  0  0  0  0
 26 25  1  0  0  0  0
 27 24  1  0  0  0  0
 28 27  1  0  0  0  0
 29 28  1  0  0  0  0
 30 28  1  0  0  0  0
 31 28  1  0  0  0  0
 31 32  1  0  0  0  0
 33 31  1  0  0  0  0
M  END
>  <MODEL>
8

>  <REMARK>
 VINA RESULT:    -6.342      2.781      9.713
 INTER + INTRA:         -14.126
 INTER:                 -11.873
 INTRA:                  -2.252
 UNBOUND:                -1.665
  Name = CHEMBL366352
  21 active torsions:
  status: ('A' for Active; 'I' for Inactive)
    1  A    between atoms: C_1  and  C_2
    2  A    between atoms: C_2  and  C_3
    3  A    between atoms: C_3  and  C_4
    4  A    between atoms: C_4  and  C_5
    5  A    between atoms: C_5  and  C_6
    6  A    between atoms: C_6  and  C_7
    7  A    between atoms: C_7  and  C_8
    8  A    between atoms: C_8  and  C_9
    9  A    between atoms: N_11  and  C_12
   10  A    between atoms: C_12  and  C_13
   11  A    between atoms: C_16  and  O_17
   12  A    between atoms: O_17  and  C_18
   13  A    between atoms: C_18  and  C_19
   14  A    between atoms: C_19  and  O_20
   15  A    between atoms: C_19  and  C_21
   16  A    between atoms: C_21  and  N_22
   17  A    between atoms: N_22  and  C_23
   18  A    between atoms: C_23  and  C_24
   19  A    between atoms: C_23  and  C_25
   20  A    between atoms: C_26  and  O_27
   21  A    between atoms: O_27  and  C_28
                            x       y       z     vdW  Elec       q    Type
                         _______ _______ _______ _____ _____    ______ ____

>  <TORSDO>
F 17

>  <SCORE>
-6.342

>  <RMSD_LB>
2.781

>  <RMSD_UB>
9.713

$$$$
CHEMBL366352
 OpenBabel10172500343D

 33 33  0  0  1  0  0  0  0  0999 V2000
  137.8900  137.3020  155.5810 C   0  0  0  0  0  0  0  0  0  0  0  0
  138.9810  137.2110  156.4450 C   0  0  0  0  0  3  0  0  0  0  0  0
  140.1960  137.8230  156.1220 C   0  0  0  0  0  3  0  0  0  0  0  0
  140.3470  138.5460  154.9300 C   0  0  0  0  0  0  0  0  0  0  0  0
  139.2420  138.6630  154.0680 C   0  0  0  0  0  0  0  0  0  0  0  0
  138.0210  138.0620  154.4120 C   0  0  0  0  0  3  0  0  0  0  0  0
  139.1790  139.3660  152.8890 O   0  0  0  0  0  0  0  0  0  0  0  0
  139.3110  138.6240  151.6860 C   0  0  0  0  0  1  0  0  0  0  0  0
  136.5930  136.6180  155.9160 C   0  0  0  0  0  2  0  0  0  0  0  0
  135.2510  135.5200  154.1910 C   0  0  0  0  0  0  0  0  0  0  0  0
  134.4740  136.4620  154.1010 O   0  0  0  0  0  0  0  0  0  0  0  0
  136.3380  135.5140  155.0310 N   0  0  0  0  0  0  0  0  0  0  0  0
  136.9510  134.7430  155.0270 H   0  0  0  0  0  0  0  0  0  0  0  0
  135.0860  134.2510  153.3800 C   0  0  0  0  0  2  0  0  0  0  0  0
  135.9980  134.2700  152.1560 C   0  0  0  0  0  2  0  0  0  0  0  0
  135.2380  133.9730  150.8650 C   0  0  0  0  0  2  0  0  0  0  0  0
  133.8360  134.5800  150.9290 C   0  0  0  0  0  2  0  0  0  0  0  0
  132.8670  133.8780  149.9790 C   0  0  0  0  0  2  0  0  0  0  0  0
  132.9070  134.5200  148.5920 C   0  0  0  0  0  2  0  0  0  0  0  0
  132.5440  136.9440  148.0210 C   0  0  0  0  0  1  0  0  0  0  0  0
  133.4890  135.9320  148.6470 C   0  0  0  0  0  2  0  0  0  0  0  0
  141.5140  139.1580  154.5660 O   0  0  0  0  0  0  0  0  0  0  0  0
  142.5210  138.3710  153.9200 C   0  0  0  0  0  2  0  0  0  0  0  0
  143.8820  139.0480  154.1510 C   0  0  1  0  0  3  0  0  0  0  0  0
  144.8230  138.0710  154.6190 O   0  0  0  0  0  0  0  0  0  0  0  0
  144.4410  137.1850  154.5240 H   0  0  0  0  0  0  0  0  0  0  0  0
  144.4390  139.7030  152.8700 C   0  0  0  0  0  2  0  0  0  0  0  0
  145.8420  140.0940  153.0240 N   0  0  0  0  0  4  0  0  0  0  0  0
  146.3520  139.7980  152.1920 H   0  0  0  0  0  0  0  0  0  0  0  0
  146.1850  139.6440  153.8730 H   0  0  0  0  0  0  0  0  0  0  0  0
  146.0390  141.5390  153.1980 C   0  0  0  0  0  3  0  0  0  0  0  0
  147.4730  141.9050  153.5890 C   0  0  0  0  0  1  0  0  0  0  0  0
  145.6870  142.2160  151.8710 C   0  0  0  0  0  1  0  0  0  0  0  0
  1  9  1  0  0  0  0
  1  2  1  0  0  0  0
  3  2  2  0  0  0  0
  4  3  1  0  0  0  0
  5  6  1  0  0  0  0
  5  4  2  0  0  0  0
  6  1  2  0  0  0  0
  7  5  1  0  0  0  0
  8  7  1  0  0  0  0
 10 12  1  0  0  0  0
 11 10  2  0  0  0  0
 12  9  1  0  0  0  0
 13 12  1  0  0  0  0
 14 10  1  0  0  0  0
 15 14  1  0  0  0  0
 16 17  1  0  0  0  0
 16 15  1  0  0  0  0
 18 17  1  0  0  0  0
 19 21  1  0  0  0  0
 19 18  1  0  0  0  0
 20 21  1  0  0  0  0
 22  4  1  0  0  0  0
 23 24  1  0  0  0  0
 23 22  1  0  0  0  0
 24 27  1  6  0  0  0
 24 25  1  0  0  0  0
 26 25  1  0  0  0  0
 27 28  1  0  0  0  0
 28 31  1  0  0  0  0
 28 30  1  0  0  0  0
 29 28  1  0  0  0  0
 31 32  1  0  0  0  0
 33 31  1  0  0  0  0
M  END
>  <MODEL>
9

>  <REMARK>
 VINA RESULT:    -6.326      2.121      2.689
 INTER + INTRA:         -14.093
 INTER:                 -12.998
 INTRA:                  -1.094
 UNBOUND:                -1.665
  Name = CHEMBL366352
  21 active torsions:
  status: ('A' for Active; 'I' for Inactive)
    1  A    between atoms: C_1  and  C_2
    2  A    between atoms: C_2  and  C_3
    3  A    between atoms: C_3  and  C_4
    4  A    between atoms: C_4  and  C_5
    5  A    between atoms: C_5  and  C_6
    6  A    between atoms: C_6  and  C_7
    7  A    between atoms: C_7  and  C_8
    8  A    between atoms: C_8  and  C_9
    9  A    between atoms: N_11  and  C_12
   10  A    between atoms: C_12  and  C_13
   11  A    between atoms: C_16  and  O_17
   12  A    between atoms: O_17  and  C_18
   13  A    between atoms: C_18  and  C_19
   14  A    between atoms: C_19  and  O_20
   15  A    between atoms: C_19  and  C_21
   16  A    between atoms: C_21  and  N_22
   17  A    between atoms: N_22  and  C_23
   18  A    between atoms: C_23  and  C_24
   19  A    between atoms: C_23  and  C_25
   20  A    between atoms: C_26  and  O_27
   21  A    between atoms: O_27  and  C_28
                            x       y       z     vdW  Elec       q    Type
                         _______ _______ _______ _____ _____    ______ ____

>  <TORSDO>
F 17

>  <SCORE>
-6.326

>  <RMSD_LB>
2.121

>  <RMSD_UB>
2.689

$$$$
