CHEMBL3342737
 OpenBabel10162523403D

 28 29  0  0  0  0  0  0  0  0999 V2000
  145.5390  139.4020  148.7590 C   0  0  0  0  0  0  0  0  0  0  0  0
  145.6660  138.9540  147.6240 O   0  0  0  0  0  0  0  0  0  0  0  0
  143.3550  139.9700  149.7420 C   0  0  0  0  0  3  0  0  0  0  0  0
  144.3430  139.0750  149.5840 C   0  0  0  0  0  3  0  0  0  0  0  0
  141.0650  138.8330  152.5440 C   0  0  0  0  0  0  0  0  0  0  0  0
  142.2140  139.0810  151.7880 C   0  0  0  0  0  3  0  0  0  0  0  0
  142.1450  139.7160  150.5390 C   0  0  0  0  0  0  0  0  0  0  0  0
  140.8880  140.0650  150.0300 C   0  0  0  0  0  3  0  0  0  0  0  0
  139.7260  139.8120  150.7690 C   0  0  0  0  0  3  0  0  0  0  0  0
  139.8210  139.2010  152.0200 C   0  0  0  0  0  0  0  0  0  0  0  0
  141.5040  139.0330  154.8740 C   0  0  0  0  0  1  0  0  0  0  0  0
  141.0610  138.2420  153.7800 O   0  0  0  0  0  0  0  0  0  0  0  0
  138.6910  138.9490  152.7500 O   0  0  0  0  0  0  0  0  0  0  0  0
  137.8670  139.2960  152.4710 H   0  0  0  0  0  0  0  0  0  0  0  0
  146.5940  140.2780  149.4130 C   0  0  0  0  0  2  0  0  0  0  0  0
  146.4070  141.7410  149.0170 C   0  0  0  0  0  2  0  0  0  0  0  0
  146.6830  142.6780  150.1920 C   0  0  0  0  0  2  0  0  0  0  0  0
  145.6130  142.5310  151.2770 C   0  0  0  0  0  2  0  0  0  0  0  0
  146.0960  141.6930  152.4330 C   0  0  0  0  0  0  0  0  0  0  0  0
  147.3170  141.9830  153.0440 C   0  0  0  0  0  3  0  0  0  0  0  0
  147.7680  141.2170  154.1180 C   0  0  0  0  0  3  0  0  0  0  0  0
  147.0030  140.1440  154.5860 C   0  0  0  0  0  0  0  0  0  0  0  0
  145.7840  139.8200  153.9790 C   0  0  0  0  0  0  0  0  0  0  0  0
  145.3410  140.6030  152.9020 C   0  0  0  0  0  3  0  0  0  0  0  0
  147.4880  139.4310  155.6470 O   0  0  0  0  0  0  0  0  0  0  0  0
  148.0990  138.7340  155.5040 H   0  0  0  0  0  0  0  0  0  0  0  0
  144.9280  138.8000  154.3110 O   0  0  0  0  0  0  0  0  0  0  0  0
  145.1660  137.5300  153.7150 C   0  0  0  0  0  1  0  0  0  0  0  0
  1 15  1  0  0  0  0
  1  4  1  0  0  0  0
  2  1  2  0  0  0  0
  3  7  1  0  0  0  0
  4  3  2  0  0  0  0
  5 12  1  0  0  0  0
  6  5  2  0  0  0  0
  7  6  1  0  0  0  0
  8  7  2  0  0  0  0
  8  9  1  0  0  0  0
  9 10  2  0  0  0  0
 10  5  1  0  0  0  0
 10 13  1  0  0  0  0
 12 11  1  0  0  0  0
 14 13  1  0  0  0  0
 16 15  1  0  0  0  0
 16 17  1  0  0  0  0
 17 18  1  0  0  0  0
 18 19  1  0  0  0  0
 19 24  2  0  0  0  0
 19 20  1  0  0  0  0
 20 21  2  0  0  0  0
 21 22  1  0  0  0  0
 22 25  1  0  0  0  0
 23 27  1  0  0  0  0
 23 22  2  0  0  0  0
 24 23  1  0  0  0  0
 26 25  1  0  0  0  0
 28 27  1  0  0  0  0
M  END
>  <MODEL>
1

>  <REMARK>
 VINA RESULT:    -7.180      0.000      0.000
 INTER + INTRA:         -12.680
 INTER:                 -10.734
 INTRA:                  -1.946
 UNBOUND:                -1.302
  Name = CHEMBL3342737
  13 active torsions:
  status: ('A' for Active; 'I' for Inactive)
    1  A    between atoms: C_1  and  O_2
    2  A    between atoms: O_2  and  C_3
    3  A    between atoms: C_5  and  C_6
    4  A    between atoms: C_7  and  C_8
    5  A    between atoms: C_8  and  C_10
    6  A    between atoms: C_10  and  C_11
    7  A    between atoms: C_11  and  C_12
    8  A    between atoms: C_12  and  C_13
    9  A    between atoms: C_13  and  C_14
   10  A    between atoms: C_17  and  O_18
   11  A    between atoms: C_19  and  O_20
   12  A    between atoms: O_20  and  C_21
   13  A    between atoms: C_25  and  O_26
                            x       y       z     vdW  Elec       q    Type
                         _______ _______ _______ _____ _____    ______ ____

>  <TORSDO>
F 11

>  <SCORE>
-7.180

>  <RMSD_LB>
0.000

>  <RMSD_UB>
0.000

$$$$
CHEMBL3342737
 OpenBabel10162523403D

 28 29  0  0  0  0  0  0  0  0999 V2000
  139.5810  136.7750  149.3850 C   0  0  0  0  0  0  0  0  0  0  0  0
  140.3410  136.4530  148.4770 O   0  0  0  0  0  0  0  0  0  0  0  0
  137.5160  136.2330  150.6090 C   0  0  0  0  0  3  0  0  0  0  0  0
  138.1940  136.2380  149.4510 C   0  0  0  0  0  3  0  0  0  0  0  0
  133.7380  135.9620  150.3950 C   0  0  0  0  0  0  0  0  0  0  0  0
  135.0430  136.4430  150.2590 C   0  0  0  0  0  3  0  0  0  0  0  0
  136.1430  135.7220  150.7480 C   0  0  0  0  0  0  0  0  0  0  0  0
  135.9110  134.5170  151.4230 C   0  0  0  0  0  3  0  0  0  0  0  0
  134.6090  134.0280  151.5790 C   0  0  0  0  0  3  0  0  0  0  0  0
  133.5320  134.7510  151.0630 C   0  0  0  0  0  0  0  0  0  0  0  0
  132.6580  137.0380  148.5680 C   0  0  0  0  0  1  0  0  0  0  0  0
  132.6220  136.6000  149.9190 O   0  0  0  0  0  0  0  0  0  0  0  0
  132.2550  134.2810  151.2110 O   0  0  0  0  0  0  0  0  0  0  0  0
  131.9540  133.5690  150.6820 H   0  0  0  0  0  0  0  0  0  0  0  0
  140.0030  137.7000  150.5130 C   0  0  0  0  0  2  0  0  0  0  0  0
  141.2270  137.1490  151.2400 C   0  0  0  0  0  2  0  0  0  0  0  0
  141.3840  137.7740  152.6260 C   0  0  0  0  0  2  0  0  0  0  0  0
  140.1910  138.6710  152.9630 C   0  0  0  0  0  2  0  0  0  0  0  0
  139.5030  138.2390  154.2330 C   0  0  0  0  0  0  0  0  0  0  0  0
  140.2470  138.0420  155.3980 C   0  0  0  0  0  3  0  0  0  0  0  0
  139.6180  137.6490  156.5780 C   0  0  0  0  0  3  0  0  0  0  0  0
  138.2360  137.4390  156.6020 C   0  0  0  0  0  0  0  0  0  0  0  0
  137.4690  137.6120  155.4430 C   0  0  0  0  0  0  0  0  0  0  0  0
  138.1160  138.0120  154.2640 C   0  0  0  0  0  3  0  0  0  0  0  0
  137.6680  137.0620  157.7870 O   0  0  0  0  0  0  0  0  0  0  0  0
  137.9560  136.2810  158.2170 H   0  0  0  0  0  0  0  0  0  0  0  0
  136.1150  137.4370  155.3000 O   0  0  0  0  0  0  0  0  0  0  0  0
  135.6730  136.2050  154.7430 C   0  0  0  0  0  1  0  0  0  0  0  0
  1  4  1  0  0  0  0
  1 15  1  0  0  0  0
  2  1  2  0  0  0  0
  3  7  1  0  0  0  0
  4  3  2  0  0  0  0
  5 10  1  0  0  0  0
  6  5  2  0  0  0  0
  6  7  1  0  0  0  0
  7  8  2  0  0  0  0
  8  9  1  0  0  0  0
 10 13  1  0  0  0  0
 10  9  2  0  0  0  0
 11 12  1  0  0  0  0
 12  5  1  0  0  0  0
 14 13  1  0  0  0  0
 15 16  1  0  0  0  0
 16 17  1  0  0  0  0
 17 18  1  0  0  0  0
 18 19  1  0  0  0  0
 19 24  2  0  0  0  0
 19 20  1  0  0  0  0
 20 21  2  0  0  0  0
 21 22  1  0  0  0  0
 22 25  1  0  0  0  0
 23 22  2  0  0  0  0
 24 23  1  0  0  0  0
 25 26  1  0  0  0  0
 27 23  1  0  0  0  0
 28 27  1  0  0  0  0
M  END
>  <MODEL>
2

>  <REMARK>
 VINA RESULT:    -7.019      5.477      8.171
 INTER + INTRA:         -12.424
 INTER:                 -10.916
 INTRA:                  -1.509
 UNBOUND:                -1.302
  Name = CHEMBL3342737
  13 active torsions:
  status: ('A' for Active; 'I' for Inactive)
    1  A    between atoms: C_1  and  O_2
    2  A    between atoms: O_2  and  C_3
    3  A    between atoms: C_5  and  C_6
    4  A    between atoms: C_7  and  C_8
    5  A    between atoms: C_8  and  C_10
    6  A    between atoms: C_10  and  C_11
    7  A    between atoms: C_11  and  C_12
    8  A    between atoms: C_12  and  C_13
    9  A    between atoms: C_13  and  C_14
   10  A    between atoms: C_17  and  O_18
   11  A    between atoms: C_19  and  O_20
   12  A    between atoms: O_20  and  C_21
   13  A    between atoms: C_25  and  O_26
                            x       y       z     vdW  Elec       q    Type
                         _______ _______ _______ _____ _____    ______ ____

>  <TORSDO>
F 11

>  <SCORE>
-7.019

>  <RMSD_LB>
5.477

>  <RMSD_UB>
8.171

$$$$
CHEMBL3342737
 OpenBabel10162523403D

 28 29  0  0  0  0  0  0  0  0999 V2000
  145.5570  137.1130  151.8060 C   0  0  0  0  0  0  0  0  0  0  0  0
  146.5510  136.9800  152.5120 O   0  0  0  0  0  0  0  0  0  0  0  0
  143.1080  137.3230  151.6620 C   0  0  0  0  0  3  0  0  0  0  0  0
  144.2240  137.4010  152.4050 C   0  0  0  0  0  3  0  0  0  0  0  0
  140.2770  138.2080  154.0260 C   0  0  0  0  0  0  0  0  0  0  0  0
  141.5570  137.9600  153.5240 C   0  0  0  0  0  3  0  0  0  0  0  0
  141.7590  137.5910  152.1860 C   0  0  0  0  0  0  0  0  0  0  0  0
  140.6430  137.4290  151.3570 C   0  0  0  0  0  3  0  0  0  0  0  0
  139.3530  137.6620  151.8470 C   0  0  0  0  0  3  0  0  0  0  0  0
  139.1780  138.0520  153.1750 C   0  0  0  0  0  0  0  0  0  0  0  0
  140.4460  137.7330  156.3520 C   0  0  0  0  0  1  0  0  0  0  0  0
  140.0090  138.5980  155.3130 O   0  0  0  0  0  0  0  0  0  0  0  0
  137.9200  138.2810  153.6640 O   0  0  0  0  0  0  0  0  0  0  0  0
  137.8050  138.8070  154.4310 H   0  0  0  0  0  0  0  0  0  0  0  0
  145.6150  137.0320  150.2910 C   0  0  0  0  0  2  0  0  0  0  0  0
  146.3800  138.2180  149.7110 C   0  0  0  0  0  2  0  0  0  0  0  0
  145.4810  139.4450  149.5600 C   0  0  0  0  0  2  0  0  0  0  0  0
  146.2960  140.7380  149.6370 C   0  0  0  0  0  2  0  0  0  0  0  0
  146.7430  141.0390  151.0450 C   0  0  0  0  0  0  0  0  0  0  0  0
  147.9710  141.6650  151.2680 C   0  0  0  0  0  3  0  0  0  0  0  0
  148.3880  141.9540  152.5670 C   0  0  0  0  0  3  0  0  0  0  0  0
  147.5840  141.6080  153.6570 C   0  0  0  0  0  0  0  0  0  0  0  0
  146.3580  140.9620  153.4610 C   0  0  0  0  0  0  0  0  0  0  0  0
  145.9490  140.6830  152.1480 C   0  0  0  0  0  3  0  0  0  0  0  0
  148.0380  141.9210  154.9080 O   0  0  0  0  0  0  0  0  0  0  0  0
  148.9090  142.2490  155.0230 H   0  0  0  0  0  0  0  0  0  0  0  0
  145.4650  140.5510  154.4190 O   0  0  0  0  0  0  0  0  0  0  0  0
  145.7230  139.3070  155.0580 C   0  0  0  0  0  1  0  0  0  0  0  0
  1  4  1  0  0  0  0
  1  2  2  0  0  0  0
  3  7  1  0  0  0  0
  3  4  2  0  0  0  0
  5 12  1  0  0  0  0
  6  5  1  0  0  0  0
  7  6  2  0  0  0  0
  8  9  2  0  0  0  0
  8  7  1  0  0  0  0
  9 10  1  0  0  0  0
 10 13  1  0  0  0  0
 10  5  2  0  0  0  0
 12 11  1  0  0  0  0
 13 14  1  0  0  0  0
 15  1  1  0  0  0  0
 16 15  1  0  0  0  0
 17 18  1  0  0  0  0
 17 16  1  0  0  0  0
 18 19  1  0  0  0  0
 19 20  2  0  0  0  0
 19 24  1  0  0  0  0
 20 21  1  0  0  0  0
 21 22  2  0  0  0  0
 22 25  1  0  0  0  0
 23 22  1  0  0  0  0
 23 27  1  0  0  0  0
 24 23  2  0  0  0  0
 25 26  1  0  0  0  0
 27 28  1  0  0  0  0
M  END
>  <MODEL>
3

>  <REMARK>
 VINA RESULT:    -7.002      1.976      2.658
 INTER + INTRA:         -12.398
 INTER:                 -10.880
 INTRA:                  -1.518
 UNBOUND:                -1.302
  Name = CHEMBL3342737
  13 active torsions:
  status: ('A' for Active; 'I' for Inactive)
    1  A    between atoms: C_1  and  O_2
    2  A    between atoms: O_2  and  C_3
    3  A    between atoms: C_5  and  C_6
    4  A    between atoms: C_7  and  C_8
    5  A    between atoms: C_8  and  C_10
    6  A    between atoms: C_10  and  C_11
    7  A    between atoms: C_11  and  C_12
    8  A    between atoms: C_12  and  C_13
    9  A    between atoms: C_13  and  C_14
   10  A    between atoms: C_17  and  O_18
   11  A    between atoms: C_19  and  O_20
   12  A    between atoms: O_20  and  C_21
   13  A    between atoms: C_25  and  O_26
                            x       y       z     vdW  Elec       q    Type
                         _______ _______ _______ _____ _____    ______ ____

>  <TORSDO>
F 11

>  <SCORE>
-7.002

>  <RMSD_LB>
1.976

>  <RMSD_UB>
2.658

$$$$
CHEMBL3342737
 OpenBabel10162523403D

 28 29  0  0  0  0  0  0  0  0999 V2000
  134.5440  134.2790  154.1050 C   0  0  0  0  0  0  0  0  0  0  0  0
  134.2800  133.4350  154.9550 O   0  0  0  0  0  0  0  0  0  0  0  0
  133.6740  134.4700  151.8100 C   0  0  0  0  0  3  0  0  0  0  0  0
  134.5650  133.9300  152.6580 C   0  0  0  0  0  3  0  0  0  0  0  0
  133.2980  134.8900  148.0590 C   0  0  0  0  0  0  0  0  0  0  0  0
  133.3400  135.1700  149.4270 C   0  0  0  0  0  3  0  0  0  0  0  0
  133.6370  134.1740  150.3690 C   0  0  0  0  0  0  0  0  0  0  0  0
  133.8540  132.8660  149.9190 C   0  0  0  0  0  3  0  0  0  0  0  0
  133.8030  132.5660  148.5530 C   0  0  0  0  0  3  0  0  0  0  0  0
  133.5290  133.5780  147.6330 C   0  0  0  0  0  0  0  0  0  0  0  0
  132.3820  137.0110  147.4870 C   0  0  0  0  0  1  0  0  0  0  0  0
  133.0400  135.8180  147.0840 O   0  0  0  0  0  0  0  0  0  0  0  0
  133.4770  133.2950  146.2940 O   0  0  0  0  0  0  0  0  0  0  0  0
  132.6950  133.4710  145.8090 H   0  0  0  0  0  0  0  0  0  0  0  0
  134.8270  135.7300  154.4560 C   0  0  0  0  0  2  0  0  0  0  0  0
  136.2920  136.0760  154.1980 C   0  0  0  0  0  2  0  0  0  0  0  0
  137.0090  136.4700  155.4880 C   0  0  0  0  0  2  0  0  0  0  0  0
  137.4700  137.9290  155.4380 C   0  0  0  0  0  2  0  0  0  0  0  0
  138.8760  138.0570  154.9080 C   0  0  0  0  0  0  0  0  0  0  0  0
  139.9620  137.9320  155.7770 C   0  0  0  0  0  3  0  0  0  0  0  0
  141.2660  138.0430  155.2940 C   0  0  0  0  0  3  0  0  0  0  0  0
  141.4950  138.2900  153.9370 C   0  0  0  0  0  0  0  0  0  0  0  0
  140.4230  138.4390  153.0490 C   0  0  0  0  0  0  0  0  0  0  0  0
  139.1170  138.3200  153.5490 C   0  0  0  0  0  3  0  0  0  0  0  0
  142.7920  138.3820  153.5160 O   0  0  0  0  0  0  0  0  0  0  0  0
  143.4890  138.1000  154.0770 H   0  0  0  0  0  0  0  0  0  0  0  0
  140.4800  138.6930  151.7020 O   0  0  0  0  0  0  0  0  0  0  0  0
  139.2810  139.1230  151.0690 C   0  0  0  0  0  1  0  0  0  0  0  0
  1 15  1  0  0  0  0
  1  2  2  0  0  0  0
  3  4  2  0  0  0  0
  4  1  1  0  0  0  0
  5  6  1  0  0  0  0
  6  7  2  0  0  0  0
  7  3  1  0  0  0  0
  8  7  1  0  0  0  0
  9  8  2  0  0  0  0
 10  5  2  0  0  0  0
 10  9  1  0  0  0  0
 12 11  1  0  0  0  0
 12  5  1  0  0  0  0
 13 10  1  0  0  0  0
 14 13  1  0  0  0  0
 16 15  1  0  0  0  0
 16 17  1  0  0  0  0
 18 17  1  0  0  0  0
 19 18  1  0  0  0  0
 19 20  1  0  0  0  0
 21 20  2  0  0  0  0
 22 21  1  0  0  0  0
 23 24  1  0  0  0  0
 23 22  2  0  0  0  0
 24 19  2  0  0  0  0
 25 22  1  0  0  0  0
 25 26  1  0  0  0  0
 27 23  1  0  0  0  0
 28 27  1  0  0  0  0
M  END
>  <MODEL>
4

>  <REMARK>
 VINA RESULT:    -6.965      6.444     10.024
 INTER + INTRA:         -12.339
 INTER:                 -11.520
 INTRA:                  -0.819
 UNBOUND:                -1.302
  Name = CHEMBL3342737
  13 active torsions:
  status: ('A' for Active; 'I' for Inactive)
    1  A    between atoms: C_1  and  O_2
    2  A    between atoms: O_2  and  C_3
    3  A    between atoms: C_5  and  C_6
    4  A    between atoms: C_7  and  C_8
    5  A    between atoms: C_8  and  C_10
    6  A    between atoms: C_10  and  C_11
    7  A    between atoms: C_11  and  C_12
    8  A    between atoms: C_12  and  C_13
    9  A    between atoms: C_13  and  C_14
   10  A    between atoms: C_17  and  O_18
   11  A    between atoms: C_19  and  O_20
   12  A    between atoms: O_20  and  C_21
   13  A    between atoms: C_25  and  O_26
                            x       y       z     vdW  Elec       q    Type
                         _______ _______ _______ _____ _____    ______ ____

>  <TORSDO>
F 11

>  <SCORE>
-6.965

>  <RMSD_LB>
6.444

>  <RMSD_UB>
10.024

$$$$
CHEMBL3342737
 OpenBabel10162523403D

 28 29  0  0  0  0  0  0  0  0999 V2000
  146.0860  136.6450  151.2370 C   0  0  0  0  0  0  0  0  0  0  0  0
  147.2580  136.6600  151.5990 O   0  0  0  0  0  0  0  0  0  0  0  0
  143.7310  137.2000  151.6900 C   0  0  0  0  0  3  0  0  0  0  0  0
  145.0130  137.2270  152.0890 C   0  0  0  0  0  3  0  0  0  0  0  0
  141.7980  139.0730  154.3630 C   0  0  0  0  0  0  0  0  0  0  0  0
  142.8520  138.5530  153.6070 C   0  0  0  0  0  3  0  0  0  0  0  0
  142.6190  137.7520  152.4800 C   0  0  0  0  0  0  0  0  0  0  0  0
  141.2970  137.4380  152.1390 C   0  0  0  0  0  3  0  0  0  0  0  0
  140.2310  137.9410  152.8920 C   0  0  0  0  0  3  0  0  0  0  0  0
  140.4860  138.7560  153.9960 C   0  0  0  0  0  0  0  0  0  0  0  0
  143.2160  139.8530  156.1080 C   0  0  0  0  0  1  0  0  0  0  0  0
  141.9530  139.8830  155.4580 O   0  0  0  0  0  0  0  0  0  0  0  0
  139.4490  139.2520  154.7400 O   0  0  0  0  0  0  0  0  0  0  0  0
  139.3370  138.9760  155.6280 H   0  0  0  0  0  0  0  0  0  0  0  0
  145.6530  136.0750  149.8980 C   0  0  0  0  0  2  0  0  0  0  0  0
  146.2400  136.8860  148.7460 C   0  0  0  0  0  2  0  0  0  0  0  0
  145.2220  137.8770  148.1830 C   0  0  0  0  0  2  0  0  0  0  0  0
  145.7880  139.2990  148.1680 C   0  0  0  0  0  2  0  0  0  0  0  0
  145.7560  139.9330  149.5350 C   0  0  0  0  0  0  0  0  0  0  0  0
  144.5440  140.3740  150.0710 C   0  0  0  0  0  3  0  0  0  0  0  0
  144.5040  140.9550  151.3380 C   0  0  0  0  0  3  0  0  0  0  0  0
  145.6800  141.1100  152.0780 C   0  0  0  0  0  0  0  0  0  0  0  0
  146.9100  140.6950  151.5550 C   0  0  0  0  0  0  0  0  0  0  0  0
  146.9340  140.1070  150.2810 C   0  0  0  0  0  3  0  0  0  0  0  0
  145.5830  141.6790  153.3170 O   0  0  0  0  0  0  0  0  0  0  0  0
  145.6830  141.1510  154.0850 H   0  0  0  0  0  0  0  0  0  0  0  0
  148.1450  140.7860  152.1460 O   0  0  0  0  0  0  0  0  0  0  0  0
  148.9480  141.9110  151.8090 C   0  0  0  0  0  1  0  0  0  0  0  0
  1  2  2  0  0  0  0
  1  4  1  0  0  0  0
  3  4  2  0  0  0  0
  3  7  1  0  0  0  0
  5 12  1  0  0  0  0
  6  5  2  0  0  0  0
  7  6  1  0  0  0  0
  8  7  2  0  0  0  0
  8  9  1  0  0  0  0
  9 10  2  0  0  0  0
 10  5  1  0  0  0  0
 10 13  1  0  0  0  0
 12 11  1  0  0  0  0
 13 14  1  0  0  0  0
 15  1  1  0  0  0  0
 16 15  1  0  0  0  0
 17 16  1  0  0  0  0
 18 17  1  0  0  0  0
 18 19  1  0  0  0  0
 19 20  2  0  0  0  0
 19 24  1  0  0  0  0
 20 21  1  0  0  0  0
 21 22  2  0  0  0  0
 22 25  1  0  0  0  0
 23 22  1  0  0  0  0
 23 27  1  0  0  0  0
 24 23  2  0  0  0  0
 25 26  1  0  0  0  0
 28 27  1  0  0  0  0
M  END
>  <MODEL>
5

>  <REMARK>
 VINA RESULT:    -6.926      2.296      3.686
 INTER + INTRA:         -12.278
 INTER:                  -9.805
 INTRA:                  -2.472
 UNBOUND:                -1.302
  Name = CHEMBL3342737
  13 active torsions:
  status: ('A' for Active; 'I' for Inactive)
    1  A    between atoms: C_1  and  O_2
    2  A    between atoms: O_2  and  C_3
    3  A    between atoms: C_5  and  C_6
    4  A    between atoms: C_7  and  C_8
    5  A    between atoms: C_8  and  C_10
    6  A    between atoms: C_10  and  C_11
    7  A    between atoms: C_11  and  C_12
    8  A    between atoms: C_12  and  C_13
    9  A    between atoms: C_13  and  C_14
   10  A    between atoms: C_17  and  O_18
   11  A    between atoms: C_19  and  O_20
   12  A    between atoms: O_20  and  C_21
   13  A    between atoms: C_25  and  O_26
                            x       y       z     vdW  Elec       q    Type
                         _______ _______ _______ _____ _____    ______ ____

>  <TORSDO>
F 11

>  <SCORE>
-6.926

>  <RMSD_LB>
2.296

>  <RMSD_UB>
3.686

$$$$
CHEMBL3342737
 OpenBabel10162523403D

 28 29  0  0  0  0  0  0  0  0999 V2000
  145.5900  137.5970  154.2220 C   0  0  0  0  0  0  0  0  0  0  0  0
  146.3220  136.6470  153.9660 O   0  0  0  0  0  0  0  0  0  0  0  0
  143.7410  138.7210  153.0480 C   0  0  0  0  0  3  0  0  0  0  0  0
  144.1910  137.6460  153.7150 C   0  0  0  0  0  3  0  0  0  0  0  0
  139.9810  138.3750  152.6830 C   0  0  0  0  0  0  0  0  0  0  0  0
  141.2800  138.2720  153.1890 C   0  0  0  0  0  3  0  0  0  0  0  0
  142.3740  138.8370  152.5170 C   0  0  0  0  0  0  0  0  0  0  0  0
  142.1530  139.4790  151.2920 C   0  0  0  0  0  3  0  0  0  0  0  0
  140.8600  139.5810  150.7660 C   0  0  0  0  0  3  0  0  0  0  0  0
  139.7840  139.0320  151.4640 C   0  0  0  0  0  0  0  0  0  0  0  0
  138.4140  138.5430  154.4660 C   0  0  0  0  0  1  0  0  0  0  0  0
  138.8650  137.8710  153.2990 O   0  0  0  0  0  0  0  0  0  0  0  0
  138.5160  139.1260  150.9560 O   0  0  0  0  0  0  0  0  0  0  0  0
  137.8880  139.6870  151.3670 H   0  0  0  0  0  0  0  0  0  0  0  0
  146.0360  138.7590  155.0930 C   0  0  0  0  0  2  0  0  0  0  0  0
  147.5410  138.9830  154.9730 C   0  0  0  0  0  2  0  0  0  0  0  0
  147.8570  140.3080  154.2800 C   0  0  0  0  0  2  0  0  0  0  0  0
  146.5740  141.0470  153.8940 C   0  0  0  0  0  2  0  0  0  0  0  0
  146.4600  141.2380  152.4030 C   0  0  0  0  0  0  0  0  0  0  0  0
  146.0330  142.4630  151.8870 C   0  0  0  0  0  3  0  0  0  0  0  0
  145.9330  142.6510  150.5090 C   0  0  0  0  0  3  0  0  0  0  0  0
  146.2480  141.6080  149.6330 C   0  0  0  0  0  0  0  0  0  0  0  0
  146.6590  140.3630  150.1250 C   0  0  0  0  0  0  0  0  0  0  0  0
  146.7610  140.1920  151.5140 C   0  0  0  0  0  3  0  0  0  0  0  0
  146.1390  141.8480  148.2910 O   0  0  0  0  0  0  0  0  0  0  0  0
  145.4170  142.3470  147.9610 H   0  0  0  0  0  0  0  0  0  0  0  0
  146.9920  139.2450  149.4020 O   0  0  0  0  0  0  0  0  0  0  0  0
  145.9330  138.5420  148.7640 C   0  0  0  0  0  1  0  0  0  0  0  0
  1 15  1  0  0  0  0
  2  1  2  0  0  0  0
  3  4  2  0  0  0  0
  4  1  1  0  0  0  0
  5  6  1  0  0  0  0
  5 12  1  0  0  0  0
  7  3  1  0  0  0  0
  7  6  2  0  0  0  0
  8  7  1  0  0  0  0
  9  8  2  0  0  0  0
  9 10  1  0  0  0  0
 10  5  2  0  0  0  0
 12 11  1  0  0  0  0
 13 14  1  0  0  0  0
 13 10  1  0  0  0  0
 16 15  1  0  0  0  0
 17 16  1  0  0  0  0
 18 17  1  0  0  0  0
 19 18  1  0  0  0  0
 20 19  1  0  0  0  0
 21 20  2  0  0  0  0
 22 23  2  0  0  0  0
 22 21  1  0  0  0  0
 23 24  1  0  0  0  0
 24 19  2  0  0  0  0
 25 22  1  0  0  0  0
 26 25  1  0  0  0  0
 27 23  1  0  0  0  0
 28 27  1  0  0  0  0
M  END
>  <MODEL>
6

>  <REMARK>
 VINA RESULT:    -6.780      1.477      4.127
 INTER + INTRA:         -12.045
 INTER:                 -10.397
 INTRA:                  -1.648
 UNBOUND:                -1.302
  Name = CHEMBL3342737
  13 active torsions:
  status: ('A' for Active; 'I' for Inactive)
    1  A    between atoms: C_1  and  O_2
    2  A    between atoms: O_2  and  C_3
    3  A    between atoms: C_5  and  C_6
    4  A    between atoms: C_7  and  C_8
    5  A    between atoms: C_8  and  C_10
    6  A    between atoms: C_10  and  C_11
    7  A    between atoms: C_11  and  C_12
    8  A    between atoms: C_12  and  C_13
    9  A    between atoms: C_13  and  C_14
   10  A    between atoms: C_17  and  O_18
   11  A    between atoms: C_19  and  O_20
   12  A    between atoms: O_20  and  C_21
   13  A    between atoms: C_25  and  O_26
                            x       y       z     vdW  Elec       q    Type
                         _______ _______ _______ _____ _____    ______ ____

>  <TORSDO>
F 11

>  <SCORE>
-6.780

>  <RMSD_LB>
1.477

>  <RMSD_UB>
4.127

$$$$
CHEMBL3342737
 OpenBabel10162523403D

 28 29  0  0  0  0  0  0  0  0999 V2000
  141.4790  138.1120  153.9160 C   0  0  0  0  0  0  0  0  0  0  0  0
  141.0100  137.6730  152.8710 O   0  0  0  0  0  0  0  0  0  0  0  0
  143.9180  137.8280  153.7430 C   0  0  0  0  0  3  0  0  0  0  0  0
  142.8720  138.6380  153.9710 C   0  0  0  0  0  3  0  0  0  0  0  0
  147.0000  140.0250  153.4790 C   0  0  0  0  0  0  0  0  0  0  0  0
  145.6700  139.5970  153.4530 C   0  0  0  0  0  3  0  0  0  0  0  0
  145.3190  138.2790  153.7780 C   0  0  0  0  0  0  0  0  0  0  0  0
  146.3370  137.3690  154.0920 C   0  0  0  0  0  3  0  0  0  0  0  0
  147.6750  137.7790  154.1110 C   0  0  0  0  0  3  0  0  0  0  0  0
  147.9980  139.1020  153.8070 C   0  0  0  0  0  0  0  0  0  0  0  0
  146.3960  142.2620  152.9360 C   0  0  0  0  0  1  0  0  0  0  0  0
  147.4100  141.3020  153.1990 O   0  0  0  0  0  0  0  0  0  0  0  0
  149.3040  139.5120  153.8220 O   0  0  0  0  0  0  0  0  0  0  0  0
  149.5350  140.3230  154.2290 H   0  0  0  0  0  0  0  0  0  0  0  0
  140.6760  138.1880  155.2030 C   0  0  0  0  0  2  0  0  0  0  0  0
  139.2080  138.4880  154.9110 C   0  0  0  0  0  2  0  0  0  0  0  0
  138.3120  138.1010  156.0870 C   0  0  0  0  0  2  0  0  0  0  0  0
  138.4460  136.6120  156.4140 C   0  0  0  0  0  2  0  0  0  0  0  0
  137.1040  135.9630  156.6400 C   0  0  0  0  0  0  0  0  0  0  0  0
  136.2730  135.6810  155.5540 C   0  0  0  0  0  3  0  0  0  0  0  0
  135.0340  135.0750  155.7540 C   0  0  0  0  0  3  0  0  0  0  0  0
  134.6080  134.7530  157.0460 C   0  0  0  0  0  0  0  0  0  0  0  0
  135.4140  135.0430  158.1540 C   0  0  0  0  0  0  0  0  0  0  0  0
  136.6610  135.6490  157.9370 C   0  0  0  0  0  3  0  0  0  0  0  0
  133.3880  134.1530  157.1850 O   0  0  0  0  0  0  0  0  0  0  0  0
  133.1980  133.3620  156.7180 H   0  0  0  0  0  0  0  0  0  0  0  0
  135.1380  134.8020  159.4770 O   0  0  0  0  0  0  0  0  0  0  0  0
  135.0800  135.9270  160.3450 C   0  0  0  0  0  1  0  0  0  0  0  0
  1  4  1  0  0  0  0
  1 15  1  0  0  0  0
  2  1  2  0  0  0  0
  3  7  1  0  0  0  0
  3  4  2  0  0  0  0
  5 10  1  0  0  0  0
  6  5  2  0  0  0  0
  6  7  1  0  0  0  0
  7  8  2  0  0  0  0
  8  9  1  0  0  0  0
 10 13  1  0  0  0  0
 10  9  2  0  0  0  0
 11 12  1  0  0  0  0
 12  5  1  0  0  0  0
 13 14  1  0  0  0  0
 16 15  1  0  0  0  0
 16 17  1  0  0  0  0
 17 18  1  0  0  0  0
 18 19  1  0  0  0  0
 19 24  1  0  0  0  0
 20 21  1  0  0  0  0
 20 19  2  0  0  0  0
 21 22  2  0  0  0  0
 22 25  1  0  0  0  0
 22 23  1  0  0  0  0
 23 27  1  0  0  0  0
 24 23  2  0  0  0  0
 26 25  1  0  0  0  0
 27 28  1  0  0  0  0
M  END
>  <MODEL>
7

>  <REMARK>
 VINA RESULT:    -6.683      4.815      9.817
 INTER + INTRA:         -11.892
 INTER:                 -11.257
 INTRA:                  -0.635
 UNBOUND:                -1.302
  Name = CHEMBL3342737
  13 active torsions:
  status: ('A' for Active; 'I' for Inactive)
    1  A    between atoms: C_1  and  O_2
    2  A    between atoms: O_2  and  C_3
    3  A    between atoms: C_5  and  C_6
    4  A    between atoms: C_7  and  C_8
    5  A    between atoms: C_8  and  C_10
    6  A    between atoms: C_10  and  C_11
    7  A    between atoms: C_11  and  C_12
    8  A    between atoms: C_12  and  C_13
    9  A    between atoms: C_13  and  C_14
   10  A    between atoms: C_17  and  O_18
   11  A    between atoms: C_19  and  O_20
   12  A    between atoms: O_20  and  C_21
   13  A    between atoms: C_25  and  O_26
                            x       y       z     vdW  Elec       q    Type
                         _______ _______ _______ _____ _____    ______ ____

>  <TORSDO>
F 11

>  <SCORE>
-6.683

>  <RMSD_LB>
4.815

>  <RMSD_UB>
9.817

$$$$
CHEMBL3342737
 OpenBabel10162523403D

 28 29  0  0  0  0  0  0  0  0999 V2000
  146.1770  141.0830  147.2460 C   0  0  0  0  0  0  0  0  0  0  0  0
  146.6820  141.9460  146.5360 O   0  0  0  0  0  0  0  0  0  0  0  0
  146.5820  141.9180  149.5260 C   0  0  0  0  0  3  0  0  0  0  0  0
  146.6160  140.8960  148.6560 C   0  0  0  0  0  3  0  0  0  0  0  0
  146.4680  141.3750  153.2790 C   0  0  0  0  0  0  0  0  0  0  0  0
  146.0780  141.4770  151.9410 C   0  0  0  0  0  3  0  0  0  0  0  0
  146.9970  141.8050  150.9330 C   0  0  0  0  0  0  0  0  0  0  0  0
  148.3230  142.0760  151.2940 C   0  0  0  0  0  3  0  0  0  0  0  0
  148.7270  141.9910  152.6310 C   0  0  0  0  0  3  0  0  0  0  0  0
  147.8010  141.6390  153.6130 C   0  0  0  0  0  0  0  0  0  0  0  0
  145.1420  139.7000  154.3260 C   0  0  0  0  0  1  0  0  0  0  0  0
  145.6310  141.0340  154.3080 O   0  0  0  0  0  0  0  0  0  0  0  0
  148.1860  141.5540  154.9240 O   0  0  0  0  0  0  0  0  0  0  0  0
  148.5760  140.7650  155.2470 H   0  0  0  0  0  0  0  0  0  0  0  0
  145.0570  140.1800  146.7600 C   0  0  0  0  0  2  0  0  0  0  0  0
  144.7750  139.0710  147.7710 C   0  0  0  0  0  2  0  0  0  0  0  0
  143.4180  139.2620  148.4480 C   0  0  0  0  0  2  0  0  0  0  0  0
  143.5390  139.1370  149.9690 C   0  0  0  0  0  2  0  0  0  0  0  0
  142.1930  138.9790  150.6300 C   0  0  0  0  0  0  0  0  0  0  0  0
  141.9880  137.9550  151.5570 C   0  0  0  0  0  3  0  0  0  0  0  0
  140.7490  137.8060  152.1790 C   0  0  0  0  0  3  0  0  0  0  0  0
  139.6980  138.6740  151.8690 C   0  0  0  0  0  0  0  0  0  0  0  0
  139.8720  139.6960  150.9280 C   0  0  0  0  0  0  0  0  0  0  0  0
  141.1260  139.8370  150.3150 C   0  0  0  0  0  3  0  0  0  0  0  0
  138.5060  138.4870  152.5120 O   0  0  0  0  0  0  0  0  0  0  0  0
  137.7000  138.6660  152.0680 H   0  0  0  0  0  0  0  0  0  0  0  0
  138.9440  140.6160  150.5090 O   0  0  0  0  0  0  0  0  0  0  0  0
  138.1620  140.2810  149.3690 C   0  0  0  0  0  1  0  0  0  0  0  0
  1  4  1  0  0  0  0
  2  1  2  0  0  0  0
  3  7  1  0  0  0  0
  4  3  2  0  0  0  0
  5 10  1  0  0  0  0
  5 12  1  0  0  0  0
  6  5  2  0  0  0  0
  7  8  2  0  0  0  0
  7  6  1  0  0  0  0
  8  9  1  0  0  0  0
  9 10  2  0  0  0  0
 10 13  1  0  0  0  0
 12 11  1  0  0  0  0
 13 14  1  0  0  0  0
 15  1  1  0  0  0  0
 15 16  1  0  0  0  0
 16 17  1  0  0  0  0
 17 18  1  0  0  0  0
 18 19  1  0  0  0  0
 19 20  1  0  0  0  0
 20 21  2  0  0  0  0
 22 21  1  0  0  0  0
 22 25  1  0  0  0  0
 23 22  2  0  0  0  0
 24 19  2  0  0  0  0
 24 23  1  0  0  0  0
 26 25  1  0  0  0  0
 27 23  1  0  0  0  0
 28 27  1  0  0  0  0
M  END
>  <MODEL>
8

>  <REMARK>
 VINA RESULT:    -6.669      1.565      6.342
 INTER + INTRA:         -11.870
 INTER:                 -10.568
 INTRA:                  -1.302
 UNBOUND:                -1.302
  Name = CHEMBL3342737
  13 active torsions:
  status: ('A' for Active; 'I' for Inactive)
    1  A    between atoms: C_1  and  O_2
    2  A    between atoms: O_2  and  C_3
    3  A    between atoms: C_5  and  C_6
    4  A    between atoms: C_7  and  C_8
    5  A    between atoms: C_8  and  C_10
    6  A    between atoms: C_10  and  C_11
    7  A    between atoms: C_11  and  C_12
    8  A    between atoms: C_12  and  C_13
    9  A    between atoms: C_13  and  C_14
   10  A    between atoms: C_17  and  O_18
   11  A    between atoms: C_19  and  O_20
   12  A    between atoms: O_20  and  C_21
   13  A    between atoms: C_25  and  O_26
                            x       y       z     vdW  Elec       q    Type
                         _______ _______ _______ _____ _____    ______ ____

>  <TORSDO>
F 11

>  <SCORE>
-6.669

>  <RMSD_LB>
1.565

>  <RMSD_UB>
6.342

$$$$
CHEMBL3342737
 OpenBabel10162523403D

 28 29  0  0  0  0  0  0  0  0999 V2000
  146.7990  136.6380  150.9220 C   0  0  0  0  0  0  0  0  0  0  0  0
  147.9440  136.6330  151.3610 O   0  0  0  0  0  0  0  0  0  0  0  0
  144.3970  137.0220  151.3010 C   0  0  0  0  0  3  0  0  0  0  0  0
  145.6410  136.9620  151.8010 C   0  0  0  0  0  3  0  0  0  0  0  0
  140.7940  137.6480  152.3080 C   0  0  0  0  0  0  0  0  0  0  0  0
  141.9240  137.3470  151.5440 C   0  0  0  0  0  3  0  0  0  0  0  0
  143.2070  137.3320  152.1100 C   0  0  0  0  0  0  0  0  0  0  0  0
  143.3500  137.6690  153.4610 C   0  0  0  0  0  3  0  0  0  0  0  0
  142.2300  137.9850  154.2380 C   0  0  0  0  0  3  0  0  0  0  0  0
  140.9610  137.9700  153.6590 C   0  0  0  0  0  0  0  0  0  0  0  0
  139.3130  138.1860  150.5240 C   0  0  0  0  0  1  0  0  0  0  0  0
  139.5100  137.6550  151.8270 O   0  0  0  0  0  0  0  0  0  0  0  0
  139.8580  138.2780  154.4100 O   0  0  0  0  0  0  0  0  0  0  0  0
  139.3450  139.0330  154.2000 H   0  0  0  0  0  0  0  0  0  0  0  0
  146.4820  136.3550  149.4640 C   0  0  0  0  0  2  0  0  0  0  0  0
  147.0470  137.4500  148.5620 C   0  0  0  0  0  2  0  0  0  0  0  0
  146.0780  138.6240  148.4330 C   0  0  0  0  0  2  0  0  0  0  0  0
  146.7310  139.9290  148.8940 C   0  0  0  0  0  2  0  0  0  0  0  0
  146.4240  140.2320  150.3390 C   0  0  0  0  0  0  0  0  0  0  0  0
  145.1170  140.5360  150.7250 C   0  0  0  0  0  3  0  0  0  0  0  0
  144.8230  140.8110  152.0610 C   0  0  0  0  0  3  0  0  0  0  0  0
  145.8380  140.7940  153.0220 C   0  0  0  0  0  0  0  0  0  0  0  0
  147.1600  140.5110  152.6570 C   0  0  0  0  0  0  0  0  0  0  0  0
  147.4390  140.2310  151.3110 C   0  0  0  0  0  3  0  0  0  0  0  0
  145.4940  141.0630  154.3170 O   0  0  0  0  0  0  0  0  0  0  0  0
  145.4760  140.3720  154.9510 H   0  0  0  0  0  0  0  0  0  0  0  0
  148.2620  140.4650  153.4730 O   0  0  0  0  0  0  0  0  0  0  0  0
  148.8230  141.7070  153.8800 C   0  0  0  0  0  1  0  0  0  0  0  0
  1  2  2  0  0  0  0
  1  4  1  0  0  0  0
  3  4  2  0  0  0  0
  3  7  1  0  0  0  0
  5 10  1  0  0  0  0
  6  7  1  0  0  0  0
  6  5  2  0  0  0  0
  7  8  2  0  0  0  0
  8  9  1  0  0  0  0
 10  9  2  0  0  0  0
 10 13  1  0  0  0  0
 11 12  1  0  0  0  0
 12  5  1  0  0  0  0
 14 13  1  0  0  0  0
 15  1  1  0  0  0  0
 16 15  1  0  0  0  0
 17 16  1  0  0  0  0
 17 18  1  0  0  0  0
 18 19  1  0  0  0  0
 19 20  2  0  0  0  0
 19 24  1  0  0  0  0
 20 21  1  0  0  0  0
 21 22  2  0  0  0  0
 22 25  1  0  0  0  0
 23 22  1  0  0  0  0
 23 27  1  0  0  0  0
 24 23  2  0  0  0  0
 25 26  1  0  0  0  0
 27 28  1  0  0  0  0
M  END
>  <MODEL>
9

>  <REMARK>
 VINA RESULT:    -6.615      2.086      3.570
 INTER + INTRA:         -11.784
 INTER:                  -9.242
 INTRA:                  -2.542
 UNBOUND:                -1.302
  Name = CHEMBL3342737
  13 active torsions:
  status: ('A' for Active; 'I' for Inactive)
    1  A    between atoms: C_1  and  O_2
    2  A    between atoms: O_2  and  C_3
    3  A    between atoms: C_5  and  C_6
    4  A    between atoms: C_7  and  C_8
    5  A    between atoms: C_8  and  C_10
    6  A    between atoms: C_10  and  C_11
    7  A    between atoms: C_11  and  C_12
    8  A    between atoms: C_12  and  C_13
    9  A    between atoms: C_13  and  C_14
   10  A    between atoms: C_17  and  O_18
   11  A    between atoms: C_19  and  O_20
   12  A    between atoms: O_20  and  C_21
   13  A    between atoms: C_25  and  O_26
                            x       y       z     vdW  Elec       q    Type
                         _______ _______ _______ _____ _____    ______ ____

>  <TORSDO>
F 11

>  <SCORE>
-6.615

>  <RMSD_LB>
2.086

>  <RMSD_UB>
3.570

$$$$
