CHEMBL77771
 OpenBabel10162523353D

 25 25  0  0  0  0  0  0  0  0999 V2000
  134.9460  135.1650  155.1820 C   0  0  0  0  0  2  0  0  0  0  0  0
  135.7910  135.9040  156.1440 C   0  0  0  0  0  0  0  0  0  0  0  0
  136.5360  136.9690  155.5780 C   0  0  0  0  0  3  0  0  0  0  0  0
  137.3820  137.7480  156.3500 C   0  0  0  0  0  0  0  0  0  0  0  0
  137.5000  137.4500  157.7050 C   0  0  0  0  0  0  0  0  0  0  0  0
  136.7840  136.4030  158.2740 C   0  0  0  0  0  3  0  0  0  0  0  0
  135.9090  135.6290  157.5100 C   0  0  0  0  0  0  0  0  0  0  0  0
  138.1260  138.8050  155.8960 O   0  0  0  0  0  0  0  0  0  0  0  0
  138.6070  138.7050  154.5580 C   0  0  0  0  0  1  0  0  0  0  0  0
  138.3300  138.1850  158.5060 O   0  0  0  0  0  0  0  0  0  0  0  0
  137.9850  138.6340  159.2520 H   0  0  0  0  0  0  0  0  0  0  0  0
  135.3300  134.6290  158.2460 O   0  0  0  0  0  0  0  0  0  0  0  0
  134.0190  134.7650  158.7630 C   0  0  0  0  0  1  0  0  0  0  0  0
  134.4170  135.7310  152.8300 C   0  0  0  0  0  0  0  0  0  0  0  0
  133.8870  136.4100  151.9910 O   0  0  0  0  0  0  0  0  0  0  0  0
  134.3280  136.0020  154.1870 N   0  0  0  0  0  0  0  0  0  0  0  0
  133.8240  136.7950  154.4810 H   0  0  0  0  0  0  0  0  0  0  0  0
  135.2660  134.5040  152.4990 C   0  0  0  0  0  2  0  0  0  0  0  0
  135.0030  134.0000  151.0850 C   0  0  0  0  0  2  0  0  0  0  0  0
  133.7440  133.1680  150.9730 C   0  0  0  0  0  2  0  0  0  0  0  0
  132.7890  133.7810  149.9530 C   0  0  0  0  0  2  0  0  0  0  0  0
  133.1760  133.3620  148.5390 C   0  0  0  0  0  2  0  0  0  0  0  0
  133.2140  134.5700  147.6080 C   0  0  0  0  0  2  0  0  0  0  0  0
  132.6160  136.9900  147.8980 C   0  0  0  0  0  1  0  0  0  0  0  0
  133.4950  135.8510  148.3860 C   0  0  0  0  0  2  0  0  0  0  0  0
  1  2  1  0  0  0  0
  2  7  1  0  0  0  0
  3  2  2  0  0  0  0
  3  4  1  0  0  0  0
  4  5  2  0  0  0  0
  5  6  1  0  0  0  0
  5 10  1  0  0  0  0
  7 12  1  0  0  0  0
  7  6  2  0  0  0  0
  8  4  1  0  0  0  0
  9  8  1  0  0  0  0
 10 11  1  0  0  0  0
 12 13  1  0  0  0  0
 14 16  1  0  0  0  0
 15 14  2  0  0  0  0
 16 17  1  0  0  0  0
 16  1  1  0  0  0  0
 18 14  1  0  0  0  0
 19 18  1  0  0  0  0
 20 19  1  0  0  0  0
 21 20  1  0  0  0  0
 22 21  1  0  0  0  0
 23 25  1  0  0  0  0
 23 22  1  0  0  0  0
 24 25  1  0  0  0  0
M  END
>  <MODEL>
1

>  <REMARK>
 VINA RESULT:    -6.017      0.000      0.000
 INTER + INTRA:         -11.823
 INTER:                 -10.812
 INTRA:                  -1.011
 UNBOUND:                -1.762
  Name = CHEMBL77771
  15 active torsions:
  status: ('A' for Active; 'I' for Inactive)
    1  A    between atoms: C_1  and  C_2
    2  A    between atoms: C_2  and  C_3
    3  A    between atoms: C_3  and  C_4
    4  A    between atoms: C_4  and  C_5
    5  A    between atoms: C_5  and  C_6
    6  A    between atoms: C_6  and  C_7
    7  A    between atoms: C_7  and  C_8
    8  A    between atoms: C_8  and  C_9
    9  A    between atoms: N_11  and  C_12
   10  A    between atoms: C_12  and  C_13
   11  A    between atoms: C_15  and  O_16
   12  A    between atoms: O_16  and  C_17
   13  A    between atoms: C_18  and  O_19
   14  A    between atoms: C_21  and  O_22
   15  A    between atoms: O_22  and  C_23
                            x       y       z     vdW  Elec       q    Type
                         _______ _______ _______ _____ _____    ______ ____

>  <TORSDO>
F 12

>  <SCORE>
-6.017

>  <RMSD_LB>
0.000

>  <RMSD_UB>
0.000

$$$$
CHEMBL77771
 OpenBabel10162523353D

 25 25  0  0  0  0  0  0  0  0999 V2000
  146.0410  136.9400  151.1450 C   0  0  0  0  0  2  0  0  0  0  0  0
  145.5490  137.6510  152.3450 C   0  0  0  0  0  0  0  0  0  0  0  0
  146.5610  138.0350  153.2600 C   0  0  0  0  0  3  0  0  0  0  0  0
  146.2560  138.6990  154.4360 C   0  0  0  0  0  0  0  0  0  0  0  0
  144.9190  138.9710  154.7130 C   0  0  0  0  0  0  0  0  0  0  0  0
  143.9120  138.5920  153.8300 C   0  0  0  0  0  3  0  0  0  0  0  0
  144.2120  137.9450  152.6310 C   0  0  0  0  0  0  0  0  0  0  0  0
  147.1640  139.1240  155.3700 O   0  0  0  0  0  0  0  0  0  0  0  0
  147.8620  138.1010  156.0760 C   0  0  0  0  0  1  0  0  0  0  0  0
  144.5660  139.6160  155.8670 O   0  0  0  0  0  0  0  0  0  0  0  0
  143.7030  139.9670  155.9620 H   0  0  0  0  0  0  0  0  0  0  0  0
  143.0830  137.6260  151.9230 O   0  0  0  0  0  0  0  0  0  0  0  0
  142.2150  138.6330  151.4340 C   0  0  0  0  0  1  0  0  0  0  0  0
  145.2050  138.0450  149.0940 C   0  0  0  0  0  0  0  0  0  0  0  0
  144.4800  138.1060  148.1360 O   0  0  0  0  0  0  0  0  0  0  0  0
  145.1490  137.0140  150.0190 N   0  0  0  0  0  0  0  0  0  0  0  0
  144.4750  136.3060  149.9010 H   0  0  0  0  0  0  0  0  0  0  0  0
  146.2580  139.1060  149.4130 C   0  0  0  0  0  2  0  0  0  0  0  0
  145.6210  140.4300  149.8170 C   0  0  0  0  0  2  0  0  0  0  0  0
  146.4100  141.6360  149.3550 C   0  0  0  0  0  2  0  0  0  0  0  0
  146.5300  142.6580  150.4820 C   0  0  0  0  0  2  0  0  0  0  0  0
  145.6190  142.2790  151.6450 C   0  0  0  0  0  2  0  0  0  0  0  0
  146.4130  142.1860  152.9450 C   0  0  0  0  0  2  0  0  0  0  0  0
  148.7480  141.9090  153.8220 C   0  0  0  0  0  1  0  0  0  0  0  0
  147.7800  141.5540  152.7070 C   0  0  0  0  0  2  0  0  0  0  0  0
  1  2  1  0  0  0  0
  2  7  2  0  0  0  0
  2  3  1  0  0  0  0
  3  4  2  0  0  0  0
  4  5  1  0  0  0  0
  4  8  1  0  0  0  0
  5 10  1  0  0  0  0
  6  5  2  0  0  0  0
  7  6  1  0  0  0  0
  8  9  1  0  0  0  0
 10 11  1  0  0  0  0
 12  7  1  0  0  0  0
 13 12  1  0  0  0  0
 14 18  1  0  0  0  0
 14 16  1  0  0  0  0
 15 14  2  0  0  0  0
 16  1  1  0  0  0  0
 17 16  1  0  0  0  0
 18 19  1  0  0  0  0
 20 19  1  0  0  0  0
 20 21  1  0  0  0  0
 21 22  1  0  0  0  0
 22 23  1  0  0  0  0
 25 23  1  0  0  0  0
 25 24  1  0  0  0  0
M  END
>  <MODEL>
2

>  <REMARK>
 VINA RESULT:    -5.875      9.103     12.228
 INTER + INTRA:         -11.587
 INTER:                  -9.511
 INTRA:                  -2.075
 UNBOUND:                -1.762
  Name = CHEMBL77771
  15 active torsions:
  status: ('A' for Active; 'I' for Inactive)
    1  A    between atoms: C_1  and  C_2
    2  A    between atoms: C_2  and  C_3
    3  A    between atoms: C_3  and  C_4
    4  A    between atoms: C_4  and  C_5
    5  A    between atoms: C_5  and  C_6
    6  A    between atoms: C_6  and  C_7
    7  A    between atoms: C_7  and  C_8
    8  A    between atoms: C_8  and  C_9
    9  A    between atoms: N_11  and  C_12
   10  A    between atoms: C_12  and  C_13
   11  A    between atoms: C_15  and  O_16
   12  A    between atoms: O_16  and  C_17
   13  A    between atoms: C_18  and  O_19
   14  A    between atoms: C_21  and  O_22
   15  A    between atoms: O_22  and  C_23
                            x       y       z     vdW  Elec       q    Type
                         _______ _______ _______ _____ _____    ______ ____

>  <TORSDO>
F 12

>  <SCORE>
-5.875

>  <RMSD_LB>
9.103

>  <RMSD_UB>
12.228

$$$$
CHEMBL77771
 OpenBabel10162523353D

 25 25  0  0  0  0  0  0  0  0999 V2000
  144.9230  139.4550  154.0490 C   0  0  0  0  0  2  0  0  0  0  0  0
  145.2450  140.3810  152.9430 C   0  0  0  0  0  0  0  0  0  0  0  0
  144.6490  140.0480  151.7020 C   0  0  0  0  0  3  0  0  0  0  0  0
  144.8650  140.8140  150.5680 C   0  0  0  0  0  0  0  0  0  0  0  0
  145.7030  141.9210  150.6700 C   0  0  0  0  0  0  0  0  0  0  0  0
  146.3050  142.2560  151.8790 C   0  0  0  0  0  3  0  0  0  0  0  0
  146.0730  141.5060  153.0320 C   0  0  0  0  0  0  0  0  0  0  0  0
  144.3200  140.5810  149.3330 O   0  0  0  0  0  0  0  0  0  0  0  0
  144.9380  139.5570  148.5580 C   0  0  0  0  0  1  0  0  0  0  0  0
  145.9560  142.7030  149.5760 O   0  0  0  0  0  0  0  0  0  0  0  0
  145.2780  143.2420  149.2190 H   0  0  0  0  0  0  0  0  0  0  0  0
  146.7830  141.9770  154.1040 O   0  0  0  0  0  0  0  0  0  0  0  0
  148.1880  141.8190  154.1800 C   0  0  0  0  0  1  0  0  0  0  0  0
  142.6420  139.3120  155.0000 C   0  0  0  0  0  0  0  0  0  0  0  0
  141.7690  139.6860  155.7390 O   0  0  0  0  0  0  0  0  0  0  0  0
  143.8810  139.9290  154.9200 N   0  0  0  0  0  0  0  0  0  0  0  0
  144.0530  140.7210  155.4800 H   0  0  0  0  0  0  0  0  0  0  0  0
  142.4790  138.1280  154.0470 C   0  0  0  0  0  2  0  0  0  0  0  0
  141.0490  138.0100  153.5310 C   0  0  0  0  0  2  0  0  0  0  0  0
  140.8930  138.4720  152.0990 C   0  0  0  0  0  2  0  0  0  0  0  0
  141.0190  137.2910  151.1410 C   0  0  0  0  0  2  0  0  0  0  0  0
  142.1910  137.4990  150.1880 C   0  0  0  0  0  2  0  0  0  0  0  0
  143.3590  136.5900  150.5600 C   0  0  0  0  0  2  0  0  0  0  0  0
  143.3740  134.7250  148.8800 C   0  0  0  0  0  1  0  0  0  0  0  0
  144.0310  136.0250  149.3120 C   0  0  0  0  0  2  0  0  0  0  0  0
  1 16  1  0  0  0  0
  2  7  1  0  0  0  0
  2  1  1  0  0  0  0
  3  2  2  0  0  0  0
  4  5  2  0  0  0  0
  4  3  1  0  0  0  0
  5  6  1  0  0  0  0
  6  7  2  0  0  0  0
  7 12  1  0  0  0  0
  8  4  1  0  0  0  0
  9  8  1  0  0  0  0
 10  5  1  0  0  0  0
 11 10  1  0  0  0  0
 12 13  1  0  0  0  0
 14 15  2  0  0  0  0
 16 14  1  0  0  0  0
 16 17  1  0  0  0  0
 18 14  1  0  0  0  0
 19 18  1  0  0  0  0
 20 19  1  0  0  0  0
 21 20  1  0  0  0  0
 22 23  1  0  0  0  0
 22 21  1  0  0  0  0
 24 25  1  0  0  0  0
 25 23  1  0  0  0  0
M  END
>  <MODEL>
3

>  <REMARK>
 VINA RESULT:    -5.870      7.484     10.835
 INTER + INTRA:         -11.578
 INTER:                  -9.980
 INTRA:                  -1.598
 UNBOUND:                -1.762
  Name = CHEMBL77771
  15 active torsions:
  status: ('A' for Active; 'I' for Inactive)
    1  A    between atoms: C_1  and  C_2
    2  A    between atoms: C_2  and  C_3
    3  A    between atoms: C_3  and  C_4
    4  A    between atoms: C_4  and  C_5
    5  A    between atoms: C_5  and  C_6
    6  A    between atoms: C_6  and  C_7
    7  A    between atoms: C_7  and  C_8
    8  A    between atoms: C_8  and  C_9
    9  A    between atoms: N_11  and  C_12
   10  A    between atoms: C_12  and  C_13
   11  A    between atoms: C_15  and  O_16
   12  A    between atoms: O_16  and  C_17
   13  A    between atoms: C_18  and  O_19
   14  A    between atoms: C_21  and  O_22
   15  A    between atoms: O_22  and  C_23
                            x       y       z     vdW  Elec       q    Type
                         _______ _______ _______ _____ _____    ______ ____

>  <TORSDO>
F 12

>  <SCORE>
-5.870

>  <RMSD_LB>
7.484

>  <RMSD_UB>
10.835

$$$$
CHEMBL77771
 OpenBabel10162523353D

 25 25  0  0  0  0  0  0  0  0999 V2000
  135.4410  135.2250  154.9850 C   0  0  0  0  0  2  0  0  0  0  0  0
  136.1750  136.0660  155.9540 C   0  0  0  0  0  0  0  0  0  0  0  0
  136.0280  135.6720  157.3080 C   0  0  0  0  0  3  0  0  0  0  0  0
  136.6460  136.3680  158.3330 C   0  0  0  0  0  0  0  0  0  0  0  0
  137.4110  137.4840  158.0060 C   0  0  0  0  0  0  0  0  0  0  0  0
  137.5570  137.8900  156.6830 C   0  0  0  0  0  3  0  0  0  0  0  0
  136.9590  137.1810  155.6410 C   0  0  0  0  0  0  0  0  0  0  0  0
  136.5760  136.0530  159.6650 O   0  0  0  0  0  0  0  0  0  0  0  0
  135.5690  135.1150  160.0350 C   0  0  0  0  0  1  0  0  0  0  0  0
  138.0320  138.2100  158.9840 O   0  0  0  0  0  0  0  0  0  0  0  0
  138.0820  137.8740  159.8570 H   0  0  0  0  0  0  0  0  0  0  0  0
  137.1950  137.7610  154.4220 O   0  0  0  0  0  0  0  0  0  0  0  0
  138.4240  138.4060  154.1430 C   0  0  0  0  0  1  0  0  0  0  0  0
  134.3350  135.5530  152.7950 C   0  0  0  0  0  0  0  0  0  0  0  0
  133.6130  136.1560  152.0440 O   0  0  0  0  0  0  0  0  0  0  0  0
  134.5960  135.9710  154.0910 N   0  0  0  0  0  0  0  0  0  0  0  0
  134.1890  136.8080  154.4110 H   0  0  0  0  0  0  0  0  0  0  0  0
  135.0630  134.2690  152.4010 C   0  0  0  0  0  2  0  0  0  0  0  0
  135.0500  134.0510  150.8920 C   0  0  0  0  0  2  0  0  0  0  0  0
  133.9650  133.0980  150.4370 C   0  0  0  0  0  2  0  0  0  0  0  0
  132.9390  133.8320  149.5790 C   0  0  0  0  0  2  0  0  0  0  0  0
  132.8660  133.2130  148.1870 C   0  0  0  0  0  2  0  0  0  0  0  0
  133.7340  133.9920  147.2030 C   0  0  0  0  0  2  0  0  0  0  0  0
  136.2360  133.8880  147.3660 C   0  0  0  0  0  1  0  0  0  0  0  0
  134.9870  133.2040  146.8370 C   0  0  0  0  0  2  0  0  0  0  0  0
  1  2  1  0  0  0  0
  2  3  1  0  0  0  0
  3  4  2  0  0  0  0
  4  8  1  0  0  0  0
  5  4  1  0  0  0  0
  5 10  1  0  0  0  0
  6  5  2  0  0  0  0
  7  2  2  0  0  0  0
  7  6  1  0  0  0  0
  8  9  1  0  0  0  0
 10 11  1  0  0  0  0
 12  7  1  0  0  0  0
 13 12  1  0  0  0  0
 14 16  1  0  0  0  0
 15 14  2  0  0  0  0
 16 17  1  0  0  0  0
 16  1  1  0  0  0  0
 18 14  1  0  0  0  0
 19 18  1  0  0  0  0
 20 19  1  0  0  0  0
 21 20  1  0  0  0  0
 22 21  1  0  0  0  0
 23 22  1  0  0  0  0
 25 23  1  0  0  0  0
 25 24  1  0  0  0  0
M  END
>  <MODEL>
4

>  <REMARK>
 VINA RESULT:    -5.765      1.200      3.088
 INTER + INTRA:         -11.403
 INTER:                 -10.220
 INTRA:                  -1.183
 UNBOUND:                -1.762
  Name = CHEMBL77771
  15 active torsions:
  status: ('A' for Active; 'I' for Inactive)
    1  A    between atoms: C_1  and  C_2
    2  A    between atoms: C_2  and  C_3
    3  A    between atoms: C_3  and  C_4
    4  A    between atoms: C_4  and  C_5
    5  A    between atoms: C_5  and  C_6
    6  A    between atoms: C_6  and  C_7
    7  A    between atoms: C_7  and  C_8
    8  A    between atoms: C_8  and  C_9
    9  A    between atoms: N_11  and  C_12
   10  A    between atoms: C_12  and  C_13
   11  A    between atoms: C_15  and  O_16
   12  A    between atoms: O_16  and  C_17
   13  A    between atoms: C_18  and  O_19
   14  A    between atoms: C_21  and  O_22
   15  A    between atoms: O_22  and  C_23
                            x       y       z     vdW  Elec       q    Type
                         _______ _______ _______ _____ _____    ______ ____

>  <TORSDO>
F 12

>  <SCORE>
-5.765

>  <RMSD_LB>
1.200

>  <RMSD_UB>
3.088

$$$$
CHEMBL77771
 OpenBabel10162523353D

 25 25  0  0  0  0  0  0  0  0999 V2000
  144.4000  138.7990  153.9510 C   0  0  0  0  0  2  0  0  0  0  0  0
  143.2990  138.3260  153.0860 C   0  0  0  0  0  0  0  0  0  0  0  0
  142.0070  138.7390  153.4970 C   0  0  0  0  0  3  0  0  0  0  0  0
  140.8720  138.3660  152.7950 C   0  0  0  0  0  0  0  0  0  0  0  0
  141.0270  137.5550  151.6740 C   0  0  0  0  0  0  0  0  0  0  0  0
  142.2870  137.1320  151.2630 C   0  0  0  0  0  3  0  0  0  0  0  0
  143.4380  137.5240  151.9490 C   0  0  0  0  0  0  0  0  0  0  0  0
  139.5880  138.7290  153.1050 O   0  0  0  0  0  0  0  0  0  0  0  0
  139.3000  138.8910  154.4920 C   0  0  0  0  0  1  0  0  0  0  0  0
  139.9360  137.1520  150.9540 O   0  0  0  0  0  0  0  0  0  0  0  0
  139.5320  136.3270  151.1370 H   0  0  0  0  0  0  0  0  0  0  0  0
  144.5700  136.9740  151.4080 O   0  0  0  0  0  0  0  0  0  0  0  0
  144.5220  136.2310  150.2040 C   0  0  0  0  0  1  0  0  0  0  0  0
  146.5930  137.6830  154.2240 C   0  0  0  0  0  0  0  0  0  0  0  0
  147.3000  136.8170  154.6680 O   0  0  0  0  0  0  0  0  0  0  0  0
  145.2290  137.7420  154.4670 N   0  0  0  0  0  0  0  0  0  0  0  0
  144.8130  137.0370  155.0130 H   0  0  0  0  0  0  0  0  0  0  0  0
  147.1100  138.8040  153.3240 C   0  0  0  0  0  2  0  0  0  0  0  0
  148.1750  139.6430  154.0210 C   0  0  0  0  0  2  0  0  0  0  0  0
  148.3020  141.0390  153.4500 C   0  0  0  0  0  2  0  0  0  0  0  0
  147.1860  141.9350  153.9810 C   0  0  0  0  0  2  0  0  0  0  0  0
  146.1910  142.2620  152.8730 C   0  0  0  0  0  2  0  0  0  0  0  0
  146.8900  142.3220  151.5180 C   0  0  0  0  0  2  0  0  0  0  0  0
  144.7300  141.1520  151.0020 C   0  0  0  0  0  1  0  0  0  0  0  0
  146.0090  141.7320  150.4220 C   0  0  0  0  0  2  0  0  0  0  0  0
  1 16  1  0  0  0  0
  2  3  1  0  0  0  0
  2  1  1  0  0  0  0
  4  8  1  0  0  0  0
  4  3  2  0  0  0  0
  5  4  1  0  0  0  0
  6  5  2  0  0  0  0
  6  7  1  0  0  0  0
  7  2  2  0  0  0  0
  8  9  1  0  0  0  0
 10 11  1  0  0  0  0
 10  5  1  0  0  0  0
 12  7  1  0  0  0  0
 13 12  1  0  0  0  0
 14 16  1  0  0  0  0
 14 15  2  0  0  0  0
 16 17  1  0  0  0  0
 18 19  1  0  0  0  0
 18 14  1  0  0  0  0
 20 21  1  0  0  0  0
 20 19  1  0  0  0  0
 22 21  1  0  0  0  0
 23 22  1  0  0  0  0
 25 24  1  0  0  0  0
 25 23  1  0  0  0  0
M  END
>  <MODEL>
5

>  <REMARK>
 VINA RESULT:    -5.721      7.367     11.718
 INTER + INTRA:         -11.328
 INTER:                  -9.545
 INTRA:                  -1.783
 UNBOUND:                -1.762
  Name = CHEMBL77771
  15 active torsions:
  status: ('A' for Active; 'I' for Inactive)
    1  A    between atoms: C_1  and  C_2
    2  A    between atoms: C_2  and  C_3
    3  A    between atoms: C_3  and  C_4
    4  A    between atoms: C_4  and  C_5
    5  A    between atoms: C_5  and  C_6
    6  A    between atoms: C_6  and  C_7
    7  A    between atoms: C_7  and  C_8
    8  A    between atoms: C_8  and  C_9
    9  A    between atoms: N_11  and  C_12
   10  A    between atoms: C_12  and  C_13
   11  A    between atoms: C_15  and  O_16
   12  A    between atoms: O_16  and  C_17
   13  A    between atoms: C_18  and  O_19
   14  A    between atoms: C_21  and  O_22
   15  A    between atoms: O_22  and  C_23
                            x       y       z     vdW  Elec       q    Type
                         _______ _______ _______ _____ _____    ______ ____

>  <TORSDO>
F 12

>  <SCORE>
-5.721

>  <RMSD_LB>
7.367

>  <RMSD_UB>
11.718

$$$$
CHEMBL77771
 OpenBabel10162523353D

 25 25  0  0  0  0  0  0  0  0999 V2000
  136.8570  135.5280  150.4490 C   0  0  0  0  0  2  0  0  0  0  0  0
  136.8800  135.8090  148.9980 C   0  0  0  0  0  0  0  0  0  0  0  0
  137.0170  134.6620  148.1770 C   0  0  0  0  0  3  0  0  0  0  0  0
  137.0670  134.7650  146.7970 C   0  0  0  0  0  0  0  0  0  0  0  0
  136.9950  136.0320  146.2260 C   0  0  0  0  0  0  0  0  0  0  0  0
  136.8700  137.1690  147.0180 C   0  0  0  0  0  3  0  0  0  0  0  0
  136.7940  137.0740  148.4080 C   0  0  0  0  0  0  0  0  0  0  0  0
  137.1800  133.7140  145.9240 O   0  0  0  0  0  0  0  0  0  0  0  0
  136.7570  132.4440  146.4130 C   0  0  0  0  0  1  0  0  0  0  0  0
  137.0490  136.1860  144.8680 O   0  0  0  0  0  0  0  0  0  0  0  0
  136.3450  135.8760  144.3330 H   0  0  0  0  0  0  0  0  0  0  0  0
  136.7100  138.3060  149.0040 O   0  0  0  0  0  0  0  0  0  0  0  0
  137.2750  139.4530  148.3970 C   0  0  0  0  0  1  0  0  0  0  0  0
  134.8620  135.7040  151.9050 C   0  0  0  0  0  0  0  0  0  0  0  0
  134.0530  136.3350  152.5340 O   0  0  0  0  0  0  0  0  0  0  0  0
  135.8810  136.2970  151.1750 N   0  0  0  0  0  0  0  0  0  0  0  0
  135.9390  137.2800  151.1530 H   0  0  0  0  0  0  0  0  0  0  0  0
  134.8490  134.1780  151.8210 C   0  0  0  0  0  2  0  0  0  0  0  0
  133.7640  133.6730  150.8770 C   0  0  0  0  0  2  0  0  0  0  0  0
  134.3080  132.8540  149.7270 C   0  0  0  0  0  2  0  0  0  0  0  0
  133.4320  133.0270  148.4890 C   0  0  0  0  0  2  0  0  0  0  0  0
  132.7840  134.4070  148.4820 C   0  0  0  0  0  2  0  0  0  0  0  0
  133.3700  135.2740  147.3710 C   0  0  0  0  0  2  0  0  0  0  0  0
  132.7560  136.9630  149.1230 C   0  0  0  0  0  1  0  0  0  0  0  0
  133.1860  136.7560  147.6810 C   0  0  0  0  0  2  0  0  0  0  0  0
  1 16  1  0  0  0  0
  2  1  1  0  0  0  0
  3  2  2  0  0  0  0
  4  3  1  0  0  0  0
  5  4  2  0  0  0  0
  5  6  1  0  0  0  0
  6  7  2  0  0  0  0
  7  2  1  0  0  0  0
  7 12  1  0  0  0  0
  8  9  1  0  0  0  0
  8  4  1  0  0  0  0
 10  5  1  0  0  0  0
 11 10  1  0  0  0  0
 13 12  1  0  0  0  0
 14 15  2  0  0  0  0
 16 14  1  0  0  0  0
 17 16  1  0  0  0  0
 18 14  1  0  0  0  0
 19 18  1  0  0  0  0
 20 19  1  0  0  0  0
 21 20  1  0  0  0  0
 22 21  1  0  0  0  0
 23 25  1  0  0  0  0
 23 22  1  0  0  0  0
 25 24  1  0  0  0  0
M  END
>  <MODEL>
6

>  <REMARK>
 VINA RESULT:    -5.652      4.299      7.457
 INTER + INTRA:         -11.214
 INTER:                  -8.564
 INTRA:                  -2.650
 UNBOUND:                -1.762
  Name = CHEMBL77771
  15 active torsions:
  status: ('A' for Active; 'I' for Inactive)
    1  A    between atoms: C_1  and  C_2
    2  A    between atoms: C_2  and  C_3
    3  A    between atoms: C_3  and  C_4
    4  A    between atoms: C_4  and  C_5
    5  A    between atoms: C_5  and  C_6
    6  A    between atoms: C_6  and  C_7
    7  A    between atoms: C_7  and  C_8
    8  A    between atoms: C_8  and  C_9
    9  A    between atoms: N_11  and  C_12
   10  A    between atoms: C_12  and  C_13
   11  A    between atoms: C_15  and  O_16
   12  A    between atoms: O_16  and  C_17
   13  A    between atoms: C_18  and  O_19
   14  A    between atoms: C_21  and  O_22
   15  A    between atoms: O_22  and  C_23
                            x       y       z     vdW  Elec       q    Type
                         _______ _______ _______ _____ _____    ______ ____

>  <TORSDO>
F 12

>  <SCORE>
-5.652

>  <RMSD_LB>
4.299

>  <RMSD_UB>
7.457

$$$$
CHEMBL77771
 OpenBabel10162523353D

 25 25  0  0  0  0  0  0  0  0999 V2000
  144.8810  137.3780  152.8470 C   0  0  0  0  0  2  0  0  0  0  0  0
  143.4350  137.4060  152.5420 C   0  0  0  0  0  0  0  0  0  0  0  0
  143.1050  137.0350  151.2150 C   0  0  0  0  0  3  0  0  0  0  0  0
  141.7910  137.0230  150.7740 C   0  0  0  0  0  0  0  0  0  0  0  0
  140.7930  137.4040  151.6670 C   0  0  0  0  0  0  0  0  0  0  0  0
  141.1010  137.7800  152.9700 C   0  0  0  0  0  3  0  0  0  0  0  0
  142.4180  137.7710  153.4300 C   0  0  0  0  0  0  0  0  0  0  0  0
  141.3760  136.6640  149.5190 O   0  0  0  0  0  0  0  0  0  0  0  0
  142.2650  135.8310  148.7790 C   0  0  0  0  0  1  0  0  0  0  0  0
  139.4820  137.4180  151.2750 O   0  0  0  0  0  0  0  0  0  0  0  0
  139.2200  136.9620  150.5000 H   0  0  0  0  0  0  0  0  0  0  0  0
  142.5130  138.2080  154.7260 O   0  0  0  0  0  0  0  0  0  0  0  0
  142.1610  139.5330  155.0800 C   0  0  0  0  0  1  0  0  0  0  0  0
  146.0510  138.5930  154.6600 C   0  0  0  0  0  0  0  0  0  0  0  0
  146.2980  138.7980  155.8190 O   0  0  0  0  0  0  0  0  0  0  0  0
  145.1870  137.5940  154.2360 N   0  0  0  0  0  0  0  0  0  0  0  0
  144.7680  137.0120  154.9110 H   0  0  0  0  0  0  0  0  0  0  0  0
  146.6760  139.3940  153.5180 C   0  0  0  0  0  2  0  0  0  0  0  0
  146.4540  140.8920  153.6920 C   0  0  0  0  0  2  0  0  0  0  0  0
  147.5870  141.7300  153.1390 C   0  0  0  0  0  2  0  0  0  0  0  0
  147.2170  142.2860  151.7670 C   0  0  0  0  0  2  0  0  0  0  0  0
  145.7020  142.3410  151.6030 C   0  0  0  0  0  2  0  0  0  0  0  0
  145.2580  141.5170  150.3980 C   0  0  0  0  0  2  0  0  0  0  0  0
  143.3230  140.1900  149.5090 C   0  0  0  0  0  1  0  0  0  0  0  0
  144.0800  140.6170  150.7550 C   0  0  0  0  0  2  0  0  0  0  0  0
  1 16  1  0  0  0  0
  2  1  1  0  0  0  0
  2  7  1  0  0  0  0
  3  2  2  0  0  0  0
  4  3  1  0  0  0  0
  4  5  2  0  0  0  0
  5  6  1  0  0  0  0
  6  7  2  0  0  0  0
  7 12  1  0  0  0  0
  8  4  1  0  0  0  0
  9  8  1  0  0  0  0
 10  5  1  0  0  0  0
 11 10  1  0  0  0  0
 12 13  1  0  0  0  0
 14 15  2  0  0  0  0
 16 14  1  0  0  0  0
 16 17  1  0  0  0  0
 18 19  1  0  0  0  0
 18 14  1  0  0  0  0
 20 19  1  0  0  0  0
 21 20  1  0  0  0  0
 22 21  1  0  0  0  0
 23 25  1  0  0  0  0
 23 22  1  0  0  0  0
 24 25  1  0  0  0  0
M  END
>  <MODEL>
7

>  <REMARK>
 VINA RESULT:    -5.651      7.380     11.135
 INTER + INTRA:         -11.211
 INTER:                  -9.462
 INTRA:                  -1.749
 UNBOUND:                -1.762
  Name = CHEMBL77771
  15 active torsions:
  status: ('A' for Active; 'I' for Inactive)
    1  A    between atoms: C_1  and  C_2
    2  A    between atoms: C_2  and  C_3
    3  A    between atoms: C_3  and  C_4
    4  A    between atoms: C_4  and  C_5
    5  A    between atoms: C_5  and  C_6
    6  A    between atoms: C_6  and  C_7
    7  A    between atoms: C_7  and  C_8
    8  A    between atoms: C_8  and  C_9
    9  A    between atoms: N_11  and  C_12
   10  A    between atoms: C_12  and  C_13
   11  A    between atoms: C_15  and  O_16
   12  A    between atoms: O_16  and  C_17
   13  A    between atoms: C_18  and  O_19
   14  A    between atoms: C_21  and  O_22
   15  A    between atoms: O_22  and  C_23
                            x       y       z     vdW  Elec       q    Type
                         _______ _______ _______ _____ _____    ______ ____

>  <TORSDO>
F 12

>  <SCORE>
-5.651

>  <RMSD_LB>
7.380

>  <RMSD_UB>
11.135

$$$$
CHEMBL77771
 OpenBabel10162523353D

 25 25  0  0  0  0  0  0  0  0999 V2000
  145.6000  138.4840  153.2350 C   0  0  0  0  0  2  0  0  0  0  0  0
  144.9750  137.7040  152.1460 C   0  0  0  0  0  0  0  0  0  0  0  0
  143.5580  137.7300  152.1400 C   0  0  0  0  0  3  0  0  0  0  0  0
  142.8270  137.0380  151.1880 C   0  0  0  0  0  0  0  0  0  0  0  0
  143.5200  136.2960  150.2360 C   0  0  0  0  0  0  0  0  0  0  0  0
  144.9100  136.2520  150.2330 C   0  0  0  0  0  3  0  0  0  0  0  0
  145.6550  136.9660  151.1730 C   0  0  0  0  0  0  0  0  0  0  0  0
  141.4600  137.0170  151.0940 O   0  0  0  0  0  0  0  0  0  0  0  0
  140.7540  137.8140  152.0410 C   0  0  0  0  0  1  0  0  0  0  0  0
  142.8420  135.5880  149.2820 O   0  0  0  0  0  0  0  0  0  0  0  0
  142.6450  134.6830  149.4220 H   0  0  0  0  0  0  0  0  0  0  0  0
  147.0020  136.7630  151.0220 O   0  0  0  0  0  0  0  0  0  0  0  0
  147.4990  135.7000  150.2300 C   0  0  0  0  0  1  0  0  0  0  0  0
  147.8300  138.0140  154.2010 C   0  0  0  0  0  0  0  0  0  0  0  0
  148.5740  137.3910  154.9120 O   0  0  0  0  0  0  0  0  0  0  0  0
  146.4830  137.7130  154.0690 N   0  0  0  0  0  0  0  0  0  0  0  0
  146.1180  136.9450  154.5650 H   0  0  0  0  0  0  0  0  0  0  0  0
  148.2860  139.1950  153.3460 C   0  0  0  0  0  2  0  0  0  0  0  0
  148.5730  140.4300  154.1920 C   0  0  0  0  0  2  0  0  0  0  0  0
  148.1710  141.7230  153.5160 C   0  0  0  0  0  2  0  0  0  0  0  0
  146.7100  142.0470  153.8130 C   0  0  0  0  0  2  0  0  0  0  0  0
  145.9420  142.2830  152.5170 C   0  0  0  0  0  2  0  0  0  0  0  0
  146.8720  142.1900  151.3110 C   0  0  0  0  0  2  0  0  0  0  0  0
  146.7250  140.2160  149.7690 C   0  0  0  0  0  1  0  0  0  0  0  0
  146.1530  141.5800  150.1130 C   0  0  0  0  0  2  0  0  0  0  0  0
  1 16  1  0  0  0  0
  2  1  1  0  0  0  0
  3  2  1  0  0  0  0
  4  3  2  0  0  0  0
  5  4  1  0  0  0  0
  6  5  2  0  0  0  0
  6  7  1  0  0  0  0
  7  2  2  0  0  0  0
  8  4  1  0  0  0  0
  8  9  1  0  0  0  0
 10 11  1  0  0  0  0
 10  5  1  0  0  0  0
 12  7  1  0  0  0  0
 13 12  1  0  0  0  0
 14 15  2  0  0  0  0
 16 14  1  0  0  0  0
 16 17  1  0  0  0  0
 18 19  1  0  0  0  0
 18 14  1  0  0  0  0
 20 21  1  0  0  0  0
 20 19  1  0  0  0  0
 22 21  1  0  0  0  0
 23 22  1  0  0  0  0
 24 25  1  0  0  0  0
 25 23  1  0  0  0  0
M  END
>  <MODEL>
8

>  <REMARK>
 VINA RESULT:    -5.618      8.700     12.857
 INTER + INTRA:         -11.156
 INTER:                  -9.227
 INTRA:                  -1.929
 UNBOUND:                -1.762
  Name = CHEMBL77771
  15 active torsions:
  status: ('A' for Active; 'I' for Inactive)
    1  A    between atoms: C_1  and  C_2
    2  A    between atoms: C_2  and  C_3
    3  A    between atoms: C_3  and  C_4
    4  A    between atoms: C_4  and  C_5
    5  A    between atoms: C_5  and  C_6
    6  A    between atoms: C_6  and  C_7
    7  A    between atoms: C_7  and  C_8
    8  A    between atoms: C_8  and  C_9
    9  A    between atoms: N_11  and  C_12
   10  A    between atoms: C_12  and  C_13
   11  A    between atoms: C_15  and  O_16
   12  A    between atoms: O_16  and  C_17
   13  A    between atoms: C_18  and  O_19
   14  A    between atoms: C_21  and  O_22
   15  A    between atoms: O_22  and  C_23
                            x       y       z     vdW  Elec       q    Type
                         _______ _______ _______ _____ _____    ______ ____

>  <TORSDO>
F 12

>  <SCORE>
-5.618

>  <RMSD_LB>
8.700

>  <RMSD_UB>
12.857

$$$$
CHEMBL77771
 OpenBabel10162523353D

 25 25  0  0  0  0  0  0  0  0999 V2000
  142.0360  137.0720  150.9680 C   0  0  0  0  0  2  0  0  0  0  0  0
  142.2310  137.6910  152.2960 C   0  0  0  0  0  0  0  0  0  0  0  0
  141.0400  138.1450  152.9160 C   0  0  0  0  0  3  0  0  0  0  0  0
  141.0620  138.7580  154.1580 C   0  0  0  0  0  0  0  0  0  0  0  0
  142.2920  138.9340  154.7860 C   0  0  0  0  0  0  0  0  0  0  0  0
  143.4710  138.5040  154.1870 C   0  0  0  0  0  3  0  0  0  0  0  0
  143.4570  137.8630  152.9470 C   0  0  0  0  0  0  0  0  0  0  0  0
  139.9640  139.2120  154.8410 O   0  0  0  0  0  0  0  0  0  0  0  0
  138.7910  138.4080  154.7480 C   0  0  0  0  0  1  0  0  0  0  0  0
  142.3650  139.5430  156.0090 O   0  0  0  0  0  0  0  0  0  0  0  0
  141.7120  139.3700  156.6580 H   0  0  0  0  0  0  0  0  0  0  0  0
  144.7200  137.5500  152.5160 O   0  0  0  0  0  0  0  0  0  0  0  0
  145.8500  137.7640  153.3410 C   0  0  0  0  0  1  0  0  0  0  0  0
  143.8670  137.0550  149.3010 C   0  0  0  0  0  0  0  0  0  0  0  0
  144.8810  136.6060  148.8360 O   0  0  0  0  0  0  0  0  0  0  0  0
  143.2350  136.5080  150.4070 N   0  0  0  0  0  0  0  0  0  0  0  0
  143.6210  135.7040  150.8250 H   0  0  0  0  0  0  0  0  0  0  0  0
  143.1450  138.2680  148.7150 C   0  0  0  0  0  2  0  0  0  0  0  0
  143.9280  139.5560  148.9400 C   0  0  0  0  0  2  0  0  0  0  0  0
  143.4200  140.3630  150.1160 C   0  0  0  0  0  2  0  0  0  0  0  0
  144.5810  140.7850  151.0120 C   0  0  0  0  0  2  0  0  0  0  0  0
  145.6350  141.5350  150.2040 C   0  0  0  0  0  2  0  0  0  0  0  0
  146.5290  142.3650  151.1200 C   0  0  0  0  0  2  0  0  0  0  0  0
  147.0980  141.9980  153.5370 C   0  0  0  0  0  1  0  0  0  0  0  0
  146.0010  142.3600  152.5510 C   0  0  0  0  0  2  0  0  0  0  0  0
  1  2  1  0  0  0  0
  2  3  2  0  0  0  0
  2  7  1  0  0  0  0
  3  4  1  0  0  0  0
  4  5  2  0  0  0  0
  4  8  1  0  0  0  0
  5 10  1  0  0  0  0
  6  5  1  0  0  0  0
  7  6  2  0  0  0  0
  9  8  1  0  0  0  0
 10 11  1  0  0  0  0
 12  7  1  0  0  0  0
 12 13  1  0  0  0  0
 14 16  1  0  0  0  0
 15 14  2  0  0  0  0
 16 17  1  0  0  0  0
 16  1  1  0  0  0  0
 18 19  1  0  0  0  0
 18 14  1  0  0  0  0
 19 20  1  0  0  0  0
 20 21  1  0  0  0  0
 22 21  1  0  0  0  0
 22 23  1  0  0  0  0
 23 25  1  0  0  0  0
 25 24  1  0  0  0  0
M  END
>  <MODEL>
9

>  <REMARK>
 VINA RESULT:    -5.483      6.747     10.480
 INTER + INTRA:         -10.931
 INTER:                  -9.170
 INTRA:                  -1.762
 UNBOUND:                -1.762
  Name = CHEMBL77771
  15 active torsions:
  status: ('A' for Active; 'I' for Inactive)
    1  A    between atoms: C_1  and  C_2
    2  A    between atoms: C_2  and  C_3
    3  A    between atoms: C_3  and  C_4
    4  A    between atoms: C_4  and  C_5
    5  A    between atoms: C_5  and  C_6
    6  A    between atoms: C_6  and  C_7
    7  A    between atoms: C_7  and  C_8
    8  A    between atoms: C_8  and  C_9
    9  A    between atoms: N_11  and  C_12
   10  A    between atoms: C_12  and  C_13
   11  A    between atoms: C_15  and  O_16
   12  A    between atoms: O_16  and  C_17
   13  A    between atoms: C_18  and  O_19
   14  A    between atoms: C_21  and  O_22
   15  A    between atoms: O_22  and  C_23
                            x       y       z     vdW  Elec       q    Type
                         _______ _______ _______ _____ _____    ______ ____

>  <TORSDO>
F 12

>  <SCORE>
-5.483

>  <RMSD_LB>
6.747

>  <RMSD_UB>
10.480

$$$$
