CHEMBL248778
 OpenBabel10162523343D

 28 29  0  0  0  0  0  0  0  0999 V2000
  145.3640  138.9530  149.2930 C   0  0  0  0  0  0  0  0  0  0  0  0
  145.3260  138.7560  148.0820 O   0  0  0  0  0  0  0  0  0  0  0  0
  145.8280  140.1290  149.8460 N   0  0  0  0  0  0  0  0  0  0  0  0
  145.8160  140.2390  150.8250 H   0  0  0  0  0  0  0  0  0  0  0  0
  144.8650  137.9470  150.3150 C   0  0  0  0  0  2  0  0  0  0  0  0
  146.0140  137.0830  150.8360 C   0  0  0  0  0  2  0  0  0  0  0  0
  147.6070  138.5060  154.6190 C   0  0  0  0  0  0  0  0  0  0  0  0
  148.4390  137.9140  153.6600 C   0  0  0  0  0  3  0  0  0  0  0  0
  147.9270  137.4560  152.4390 C   0  0  0  0  0  3  0  0  0  0  0  0
  146.5650  137.5730  152.1530 C   0  0  0  0  0  0  0  0  0  0  0  0
  145.7300  138.1540  153.1150 C   0  0  0  0  0  3  0  0  0  0  0  0
  146.2380  138.6400  154.3330 C   0  0  0  0  0  0  0  0  0  0  0  0
  148.1930  137.8580  156.8360 C   0  0  0  0  0  1  0  0  0  0  0  0
  148.0550  138.8820  155.8580 O   0  0  0  0  0  0  0  0  0  0  0  0
  145.2730  139.1730  155.1490 O   0  0  0  0  0  0  0  0  0  0  0  0
  144.0120  139.4440  154.5480 C   0  0  0  0  0  1  0  0  0  0  0  0
  146.3340  141.2090  149.0180 C   0  0  0  0  0  2  0  0  0  0  0  0
  146.5220  142.5130  149.7970 C   0  0  0  0  0  2  0  0  0  0  0  0
  147.0890  142.2700  151.1730 C   0  0  0  0  0  0  0  0  0  0  0  0
  148.4630  142.0250  151.3500 C   0  0  0  0  0  3  0  0  0  0  0  0
  149.0020  141.8490  152.6290 C   0  0  0  0  0  3  0  0  0  0  0  0
  148.1640  141.9270  153.7350 C   0  0  0  0  0  0  0  0  0  0  0  0
  146.8040  142.1700  153.5680 C   0  0  0  0  0  0  0  0  0  0  0  0
  146.2580  142.3310  152.3010 C   0  0  0  0  0  3  0  0  0  0  0  0
  148.6320  141.7780  155.0110 O   0  0  0  0  0  0  0  0  0  0  0  0
  148.1520  141.2600  155.6280 H   0  0  0  0  0  0  0  0  0  0  0  0
  145.9890  142.2690  154.6600 O   0  0  0  0  0  0  0  0  0  0  0  0
  146.1630  141.7510  155.4220 H   0  0  0  0  0  0  0  0  0  0  0  0
  1  3  1  0  0  0  0
  1  5  1  0  0  0  0
  2  1  2  0  0  0  0
  3  4  1  0  0  0  0
  5  6  1  0  0  0  0
  6 10  1  0  0  0  0
  7 14  1  0  0  0  0
  8  7  2  0  0  0  0
  9  8  1  0  0  0  0
 10  9  2  0  0  0  0
 10 11  1  0  0  0  0
 11 12  2  0  0  0  0
 12  7  1  0  0  0  0
 12 15  1  0  0  0  0
 14 13  1  0  0  0  0
 16 15  1  0  0  0  0
 17 18  1  0  0  0  0
 17  3  1  0  0  0  0
 18 19  1  0  0  0  0
 19 20  2  0  0  0  0
 19 24  1  0  0  0  0
 20 21  1  0  0  0  0
 21 22  2  0  0  0  0
 22 25  1  0  0  0  0
 23 22  1  0  0  0  0
 23 27  1  0  0  0  0
 24 23  2  0  0  0  0
 25 26  1  0  0  0  0
 27 28  1  0  0  0  0
M  END
>  <MODEL>
1

>  <REMARK>
 VINA RESULT:    -7.236      0.000      0.000
 INTER + INTRA:         -13.165
 INTER:                 -11.311
 INTRA:                  -1.854
 UNBOUND:                -2.122
  Name = CHEMBL248778
  12 active torsions:
  status: ('A' for Active; 'I' for Inactive)
    1  A    between atoms: C_1  and  O_2
    2  A    between atoms: O_2  and  C_3
    3  A    between atoms: C_6  and  C_7
    4  A    between atoms: C_7  and  C_8
    5  A    between atoms: C_8  and  C_9
    6  A    between atoms: N_11  and  C_12
    7  A    between atoms: C_12  and  C_13
    8  A    between atoms: C_13  and  C_14
    9  A    between atoms: C_17  and  O_18
   10  A    between atoms: C_19  and  O_20
   11  A    between atoms: C_23  and  O_24
   12  A    between atoms: O_24  and  C_25
                            x       y       z     vdW  Elec       q    Type
                         _______ _______ _______ _____ _____    ______ ____

>  <TORSDO>
F 10

>  <SCORE>
-7.236

>  <RMSD_LB>
0.000

>  <RMSD_UB>
0.000

$$$$
CHEMBL248778
 OpenBabel10162523343D

 28 29  0  0  0  0  0  0  0  0999 V2000
  145.7540  138.6950  150.9380 C   0  0  0  0  0  0  0  0  0  0  0  0
  146.9700  138.5390  151.0030 O   0  0  0  0  0  0  0  0  0  0  0  0
  145.1670  139.7110  150.2110 N   0  0  0  0  0  0  0  0  0  0  0  0
  144.1840  139.7750  150.1800 H   0  0  0  0  0  0  0  0  0  0  0  0
  144.7600  137.7660  151.6120 C   0  0  0  0  0  2  0  0  0  0  0  0
  143.3490  137.9860  151.0660 C   0  0  0  0  0  2  0  0  0  0  0  0
  140.3840  138.4570  154.2050 C   0  0  0  0  0  0  0  0  0  0  0  0
  140.0670  137.8120  153.0020 C   0  0  0  0  0  3  0  0  0  0  0  0
  141.0240  137.6580  151.9900 C   0  0  0  0  0  3  0  0  0  0  0  0
  142.3180  138.1550  152.1550 C   0  0  0  0  0  0  0  0  0  0  0  0
  142.6320  138.8090  153.3520 C   0  0  0  0  0  3  0  0  0  0  0  0
  141.6870  138.9470  154.3850 C   0  0  0  0  0  0  0  0  0  0  0  0
  138.0880  138.4870  154.8430 C   0  0  0  0  0  1  0  0  0  0  0  0
  139.4530  138.7060  155.1790 O   0  0  0  0  0  0  0  0  0  0  0  0
  142.1740  139.6150  155.4790 O   0  0  0  0  0  0  0  0  0  0  0  0
  143.5730  139.8740  155.4960 C   0  0  0  0  0  1  0  0  0  0  0  0
  145.9650  140.6880  149.4920 C   0  0  0  0  0  2  0  0  0  0  0  0
  145.9390  142.0700  150.1480 C   0  0  0  0  0  2  0  0  0  0  0  0
  146.6450  142.0740  151.4800 C   0  0  0  0  0  0  0  0  0  0  0  0
  145.9120  142.0380  152.6810 C   0  0  0  0  0  3  0  0  0  0  0  0
  146.5630  141.9910  153.9180 C   0  0  0  0  0  3  0  0  0  0  0  0
  147.9510  141.9710  153.9540 C   0  0  0  0  0  0  0  0  0  0  0  0
  148.6840  142.0050  152.7710 C   0  0  0  0  0  0  0  0  0  0  0  0
  148.0470  142.0670  151.5390 C   0  0  0  0  0  3  0  0  0  0  0  0
  148.6460  141.9110  155.1310 O   0  0  0  0  0  0  0  0  0  0  0  0
  148.5610  142.5990  155.7610 H   0  0  0  0  0  0  0  0  0  0  0  0
  150.0490  141.9600  152.8120 O   0  0  0  0  0  0  0  0  0  0  0  0
  150.5450  142.1020  152.0300 H   0  0  0  0  0  0  0  0  0  0  0  0
  1  2  2  0  0  0  0
  1  5  1  0  0  0  0
  3  1  1  0  0  0  0
  4  3  1  0  0  0  0
  6  5  1  0  0  0  0
  6 10  1  0  0  0  0
  7 12  1  0  0  0  0
  7 14  1  0  0  0  0
  8  7  2  0  0  0  0
  9 10  2  0  0  0  0
  9  8  1  0  0  0  0
 10 11  1  0  0  0  0
 11 12  2  0  0  0  0
 12 15  1  0  0  0  0
 13 14  1  0  0  0  0
 15 16  1  0  0  0  0
 17 18  1  0  0  0  0
 17  3  1  0  0  0  0
 18 19  1  0  0  0  0
 19 24  2  0  0  0  0
 19 20  1  0  0  0  0
 20 21  2  0  0  0  0
 21 22  1  0  0  0  0
 22 25  1  0  0  0  0
 23 27  1  0  0  0  0
 23 22  2  0  0  0  0
 24 23  1  0  0  0  0
 25 26  1  0  0  0  0
 28 27  1  0  0  0  0
M  END
>  <MODEL>
2

>  <REMARK>
 VINA RESULT:    -6.767      2.692      4.393
 INTER + INTRA:         -12.448
 INTER:                 -11.355
 INTRA:                  -1.093
 UNBOUND:                -2.122
  Name = CHEMBL248778
  12 active torsions:
  status: ('A' for Active; 'I' for Inactive)
    1  A    between atoms: C_1  and  O_2
    2  A    between atoms: O_2  and  C_3
    3  A    between atoms: C_6  and  C_7
    4  A    between atoms: C_7  and  C_8
    5  A    between atoms: C_8  and  C_9
    6  A    between atoms: N_11  and  C_12
    7  A    between atoms: C_12  and  C_13
    8  A    between atoms: C_13  and  C_14
    9  A    between atoms: C_17  and  O_18
   10  A    between atoms: C_19  and  O_20
   11  A    between atoms: C_23  and  O_24
   12  A    between atoms: O_24  and  C_25
                            x       y       z     vdW  Elec       q    Type
                         _______ _______ _______ _____ _____    ______ ____

>  <TORSDO>
F 10

>  <SCORE>
-6.767

>  <RMSD_LB>
2.692

>  <RMSD_UB>
4.393

$$$$
CHEMBL248778
 OpenBabel10162523343D

 28 29  0  0  0  0  0  0  0  0999 V2000
  146.5710  138.0850  153.8140 C   0  0  0  0  0  0  0  0  0  0  0  0
  147.7050  137.8320  153.4140 O   0  0  0  0  0  0  0  0  0  0  0  0
  146.2150  139.3150  154.3260 N   0  0  0  0  0  0  0  0  0  0  0  0
  145.2840  139.4660  154.6130 H   0  0  0  0  0  0  0  0  0  0  0  0
  145.4270  137.0890  153.7490 C   0  0  0  0  0  2  0  0  0  0  0  0
  144.8050  137.0620  152.3520 C   0  0  0  0  0  2  0  0  0  0  0  0
  140.5470  137.9210  152.3850 C   0  0  0  0  0  0  0  0  0  0  0  0
  141.1550  137.3210  151.2750 C   0  0  0  0  0  3  0  0  0  0  0  0
  142.5280  137.0420  151.2640 C   0  0  0  0  0  3  0  0  0  0  0  0
  143.3260  137.3660  152.3630 C   0  0  0  0  0  0  0  0  0  0  0  0
  142.7220  137.9750  153.4690 C   0  0  0  0  0  3  0  0  0  0  0  0
  141.3400  138.2370  153.5000 C   0  0  0  0  0  0  0  0  0  0  0  0
  138.3490  137.5910  151.5230 C   0  0  0  0  0  1  0  0  0  0  0  0
  139.2270  138.2910  152.3970 O   0  0  0  0  0  0  0  0  0  0  0  0
  140.9290  138.8380  154.6620 O   0  0  0  0  0  0  0  0  0  0  0  0
  140.8910  138.0180  155.8240 C   0  0  0  0  0  1  0  0  0  0  0  0
  147.1790  140.3930  154.4530 C   0  0  0  0  0  2  0  0  0  0  0  0
  146.6140  141.7460  154.0160 C   0  0  0  0  0  2  0  0  0  0  0  0
  146.5150  141.8580  152.5160 C   0  0  0  0  0  0  0  0  0  0  0  0
  147.5980  142.3410  151.7590 C   0  0  0  0  0  3  0  0  0  0  0  0
  147.5290  142.3990  150.3630 C   0  0  0  0  0  3  0  0  0  0  0  0
  146.3760  141.9650  149.7220 C   0  0  0  0  0  0  0  0  0  0  0  0
  145.3000  141.4850  150.4630 C   0  0  0  0  0  0  0  0  0  0  0  0
  145.3530  141.4380  151.8500 C   0  0  0  0  0  3  0  0  0  0  0  0
  146.2510  141.9830  148.3600 O   0  0  0  0  0  0  0  0  0  0  0  0
  145.4220  142.1750  147.9680 H   0  0  0  0  0  0  0  0  0  0  0  0
  144.1770  141.0370  149.8260 O   0  0  0  0  0  0  0  0  0  0  0  0
  143.3430  141.0960  150.2510 H   0  0  0  0  0  0  0  0  0  0  0  0
  1  3  1  0  0  0  0
  2  1  2  0  0  0  0
  3 17  1  0  0  0  0
  3  4  1  0  0  0  0
  5  1  1  0  0  0  0
  6 10  1  0  0  0  0
  6  5  1  0  0  0  0
  7 14  1  0  0  0  0
  7 12  1  0  0  0  0
  8  7  2  0  0  0  0
  9  8  1  0  0  0  0
  9 10  2  0  0  0  0
 10 11  1  0  0  0  0
 11 12  2  0  0  0  0
 12 15  1  0  0  0  0
 13 14  1  0  0  0  0
 15 16  1  0  0  0  0
 18 17  1  0  0  0  0
 19 18  1  0  0  0  0
 20 19  2  0  0  0  0
 21 20  1  0  0  0  0
 22 21  2  0  0  0  0
 22 23  1  0  0  0  0
 23 24  2  0  0  0  0
 24 19  1  0  0  0  0
 25 22  1  0  0  0  0
 26 25  1  0  0  0  0
 27 28  1  0  0  0  0
 27 23  1  0  0  0  0
M  END
>  <MODEL>
3

>  <REMARK>
 VINA RESULT:    -6.387      3.159      5.309
 INTER + INTRA:         -11.870
 INTER:                 -10.911
 INTRA:                  -0.959
 UNBOUND:                -2.122
  Name = CHEMBL248778
  12 active torsions:
  status: ('A' for Active; 'I' for Inactive)
    1  A    between atoms: C_1  and  O_2
    2  A    between atoms: O_2  and  C_3
    3  A    between atoms: C_6  and  C_7
    4  A    between atoms: C_7  and  C_8
    5  A    between atoms: C_8  and  C_9
    6  A    between atoms: N_11  and  C_12
    7  A    between atoms: C_12  and  C_13
    8  A    between atoms: C_13  and  C_14
    9  A    between atoms: C_17  and  O_18
   10  A    between atoms: C_19  and  O_20
   11  A    between atoms: C_23  and  O_24
   12  A    between atoms: O_24  and  C_25
                            x       y       z     vdW  Elec       q    Type
                         _______ _______ _______ _____ _____    ______ ____

>  <TORSDO>
F 10

>  <SCORE>
-6.387

>  <RMSD_LB>
3.159

>  <RMSD_UB>
5.309

$$$$
CHEMBL248778
 OpenBabel10162523343D

 28 29  0  0  0  0  0  0  0  0999 V2000
  148.4460  140.7370  153.2700 C   0  0  0  0  0  0  0  0  0  0  0  0
  148.1750  141.3630  154.2900 O   0  0  0  0  0  0  0  0  0  0  0  0
  148.5000  139.3590  153.2290 N   0  0  0  0  0  0  0  0  0  0  0  0
  148.7040  138.9100  152.3750 H   0  0  0  0  0  0  0  0  0  0  0  0
  148.7100  141.4050  151.9310 C   0  0  0  0  0  2  0  0  0  0  0  0
  147.5490  142.3190  151.5390 C   0  0  0  0  0  2  0  0  0  0  0  0
  144.2040  140.1690  149.7900 C   0  0  0  0  0  0  0  0  0  0  0  0
  144.1760  140.5860  151.1270 C   0  0  0  0  0  3  0  0  0  0  0  0
  145.2540  141.2810  151.6910 C   0  0  0  0  0  3  0  0  0  0  0  0
  146.3900  141.5670  150.9320 C   0  0  0  0  0  0  0  0  0  0  0  0
  146.4240  141.1410  149.5980 C   0  0  0  0  0  3  0  0  0  0  0  0
  145.3370  140.4640  149.0150 C   0  0  0  0  0  0  0  0  0  0  0  0
  143.2020  138.0210  149.5410 C   0  0  0  0  0  1  0  0  0  0  0  0
  143.2110  139.4090  149.2300 O   0  0  0  0  0  0  0  0  0  0  0  0
  145.5520  140.1250  147.7040 O   0  0  0  0  0  0  0  0  0  0  0  0
  146.3550  138.9740  147.4680 C   0  0  0  0  0  1  0  0  0  0  0  0
  148.2630  138.5550  154.4140 C   0  0  0  0  0  2  0  0  0  0  0  0
  147.2140  137.4630  154.1880 C   0  0  0  0  0  2  0  0  0  0  0  0
  145.8130  138.0200  154.1900 C   0  0  0  0  0  0  0  0  0  0  0  0
  144.7870  137.3870  153.4640 C   0  0  0  0  0  3  0  0  0  0  0  0
  143.4760  137.8700  153.5030 C   0  0  0  0  0  3  0  0  0  0  0  0
  143.1870  138.9860  154.2780 C   0  0  0  0  0  0  0  0  0  0  0  0
  144.1950  139.6180  155.0000 C   0  0  0  0  0  0  0  0  0  0  0  0
  145.5030  139.1550  154.9550 C   0  0  0  0  0  3  0  0  0  0  0  0
  141.9220  139.4990  154.3690 O   0  0  0  0  0  0  0  0  0  0  0  0
  141.2510  139.0130  154.8060 H   0  0  0  0  0  0  0  0  0  0  0  0
  143.9000  140.7010  155.7800 O   0  0  0  0  0  0  0  0  0  0  0  0
  143.6670  141.5160  155.3800 H   0  0  0  0  0  0  0  0  0  0  0  0
  1  2  2  0  0  0  0
  3  1  1  0  0  0  0
  3 17  1  0  0  0  0
  4  3  1  0  0  0  0
  5  1  1  0  0  0  0
  6  5  1  0  0  0  0
  7  8  1  0  0  0  0
  8  9  2  0  0  0  0
 10  6  1  0  0  0  0
 10  9  1  0  0  0  0
 11 10  2  0  0  0  0
 12 11  1  0  0  0  0
 12  7  2  0  0  0  0
 14 13  1  0  0  0  0
 14  7  1  0  0  0  0
 15 12  1  0  0  0  0
 16 15  1  0  0  0  0
 18 19  1  0  0  0  0
 18 17  1  0  0  0  0
 19 24  1  0  0  0  0
 20 21  1  0  0  0  0
 20 19  2  0  0  0  0
 21 22  2  0  0  0  0
 22 25  1  0  0  0  0
 22 23  1  0  0  0  0
 23 27  1  0  0  0  0
 24 23  2  0  0  0  0
 25 26  1  0  0  0  0
 28 27  1  0  0  0  0
M  END
>  <MODEL>
4

>  <REMARK>
 VINA RESULT:    -6.323      1.857      6.028
 INTER + INTRA:         -11.771
 INTER:                  -9.993
 INTRA:                  -1.779
 UNBOUND:                -2.122
  Name = CHEMBL248778
  12 active torsions:
  status: ('A' for Active; 'I' for Inactive)
    1  A    between atoms: C_1  and  O_2
    2  A    between atoms: O_2  and  C_3
    3  A    between atoms: C_6  and  C_7
    4  A    between atoms: C_7  and  C_8
    5  A    between atoms: C_8  and  C_9
    6  A    between atoms: N_11  and  C_12
    7  A    between atoms: C_12  and  C_13
    8  A    between atoms: C_13  and  C_14
    9  A    between atoms: C_17  and  O_18
   10  A    between atoms: C_19  and  O_20
   11  A    between atoms: C_23  and  O_24
   12  A    between atoms: O_24  and  C_25
                            x       y       z     vdW  Elec       q    Type
                         _______ _______ _______ _____ _____    ______ ____

>  <TORSDO>
F 10

>  <SCORE>
-6.323

>  <RMSD_LB>
1.857

>  <RMSD_UB>
6.028

$$$$
CHEMBL248778
 OpenBabel10162523343D

 28 29  0  0  0  0  0  0  0  0999 V2000
  144.5610  139.8570  150.1190 C   0  0  0  0  0  0  0  0  0  0  0  0
  145.3660  138.9310  150.0690 O   0  0  0  0  0  0  0  0  0  0  0  0
  144.8790  141.1460  149.7460 N   0  0  0  0  0  0  0  0  0  0  0  0
  144.1860  141.8450  149.7890 H   0  0  0  0  0  0  0  0  0  0  0  0
  143.1160  139.6790  150.5530 C   0  0  0  0  0  2  0  0  0  0  0  0
  142.8920  138.2880  151.1480 C   0  0  0  0  0  2  0  0  0  0  0  0
  139.1270  137.9730  153.2920 C   0  0  0  0  0  0  0  0  0  0  0  0
  140.3390  138.1300  153.9780 C   0  0  0  0  0  3  0  0  0  0  0  0
  141.5540  138.2330  153.2870 C   0  0  0  0  0  3  0  0  0  0  0  0
  141.5840  138.1730  151.8920 C   0  0  0  0  0  0  0  0  0  0  0  0
  140.3750  138.0050  151.2070 C   0  0  0  0  0  3  0  0  0  0  0  0
  139.1470  137.9250  151.8890 C   0  0  0  0  0  0  0  0  0  0  0  0
  137.7910  138.3510  155.2290 C   0  0  0  0  0  1  0  0  0  0  0  0
  137.9330  137.7770  153.9350 O   0  0  0  0  0  0  0  0  0  0  0  0
  138.0730  137.7590  151.0540 O   0  0  0  0  0  0  0  0  0  0  0  0
  138.0980  136.6180  150.2040 C   0  0  0  0  0  1  0  0  0  0  0  0
  146.2130  141.4980  149.2930 C   0  0  0  0  0  2  0  0  0  0  0  0
  146.9010  142.5120  150.2100 C   0  0  0  0  0  2  0  0  0  0  0  0
  147.1860  141.9360  151.5740 C   0  0  0  0  0  0  0  0  0  0  0  0
  146.4560  142.3610  152.7000 C   0  0  0  0  0  3  0  0  0  0  0  0
  146.6830  141.7930  153.9580 C   0  0  0  0  0  3  0  0  0  0  0  0
  147.6370  140.7920  154.0890 C   0  0  0  0  0  0  0  0  0  0  0  0
  148.3620  140.3650  152.9800 C   0  0  0  0  0  0  0  0  0  0  0  0
  148.1550  140.9330  151.7300 C   0  0  0  0  0  3  0  0  0  0  0  0
  147.8950  140.1870  155.2880 O   0  0  0  0  0  0  0  0  0  0  0  0
  148.7780  140.0980  155.5870 H   0  0  0  0  0  0  0  0  0  0  0  0
  149.2810  139.3630  153.1100 O   0  0  0  0  0  0  0  0  0  0  0  0
  149.9230  139.2270  152.4400 H   0  0  0  0  0  0  0  0  0  0  0  0
  1  5  1  0  0  0  0
  2  1  2  0  0  0  0
  3  4  1  0  0  0  0
  3  1  1  0  0  0  0
  5  6  1  0  0  0  0
  6 10  1  0  0  0  0
  7 14  1  0  0  0  0
  7  8  1  0  0  0  0
  9  8  2  0  0  0  0
 10  9  1  0  0  0  0
 11 12  1  0  0  0  0
 11 10  2  0  0  0  0
 12  7  2  0  0  0  0
 14 13  1  0  0  0  0
 15 12  1  0  0  0  0
 16 15  1  0  0  0  0
 17  3  1  0  0  0  0
 17 18  1  0  0  0  0
 18 19  1  0  0  0  0
 19 24  2  0  0  0  0
 19 20  1  0  0  0  0
 20 21  2  0  0  0  0
 21 22  1  0  0  0  0
 22 25  1  0  0  0  0
 23 27  1  0  0  0  0
 23 22  2  0  0  0  0
 24 23  1  0  0  0  0
 25 26  1  0  0  0  0
 28 27  1  0  0  0  0
M  END
>  <MODEL>
5

>  <REMARK>
 VINA RESULT:    -6.286      3.819      5.384
 INTER + INTRA:         -11.714
 INTER:                 -10.922
 INTRA:                  -0.792
 UNBOUND:                -2.122
  Name = CHEMBL248778
  12 active torsions:
  status: ('A' for Active; 'I' for Inactive)
    1  A    between atoms: C_1  and  O_2
    2  A    between atoms: O_2  and  C_3
    3  A    between atoms: C_6  and  C_7
    4  A    between atoms: C_7  and  C_8
    5  A    between atoms: C_8  and  C_9
    6  A    between atoms: N_11  and  C_12
    7  A    between atoms: C_12  and  C_13
    8  A    between atoms: C_13  and  C_14
    9  A    between atoms: C_17  and  O_18
   10  A    between atoms: C_19  and  O_20
   11  A    between atoms: C_23  and  O_24
   12  A    between atoms: O_24  and  C_25
                            x       y       z     vdW  Elec       q    Type
                         _______ _______ _______ _____ _____    ______ ____

>  <TORSDO>
F 10

>  <SCORE>
-6.286

>  <RMSD_LB>
3.819

>  <RMSD_UB>
5.384

$$$$
CHEMBL248778
 OpenBabel10162523343D

 28 29  0  0  0  0  0  0  0  0999 V2000
  133.4150  134.4030  151.4160 C   0  0  0  0  0  0  0  0  0  0  0  0
  132.9400  135.5190  151.2250 O   0  0  0  0  0  0  0  0  0  0  0  0
  133.9420  134.0110  152.6290 N   0  0  0  0  0  0  0  0  0  0  0  0
  134.2910  133.0950  152.7290 H   0  0  0  0  0  0  0  0  0  0  0  0
  133.4350  133.3170  150.3550 C   0  0  0  0  0  2  0  0  0  0  0  0
  132.4390  133.6270  149.2370 C   0  0  0  0  0  2  0  0  0  0  0  0
  134.3750  135.0280  145.6090 C   0  0  0  0  0  0  0  0  0  0  0  0
  133.8570  135.9310  146.5480 C   0  0  0  0  0  3  0  0  0  0  0  0
  133.2340  135.4800  147.7180 C   0  0  0  0  0  3  0  0  0  0  0  0
  133.1070  134.1130  147.9730 C   0  0  0  0  0  0  0  0  0  0  0  0
  133.6140  133.2100  147.0310 C   0  0  0  0  0  3  0  0  0  0  0  0
  134.2640  133.6520  145.8640 C   0  0  0  0  0  0  0  0  0  0  0  0
  135.9770  136.3660  144.4590 C   0  0  0  0  0  1  0  0  0  0  0  0
  134.9080  135.4290  144.4120 O   0  0  0  0  0  0  0  0  0  0  0  0
  134.6910  132.6270  145.0610 O   0  0  0  0  0  0  0  0  0  0  0  0
  136.0530  132.2370  145.1980 C   0  0  0  0  0  1  0  0  0  0  0  0
  133.9940  134.9170  153.7620 C   0  0  0  0  0  2  0  0  0  0  0  0
  135.4020  135.4550  154.0250 C   0  0  0  0  0  2  0  0  0  0  0  0
  135.7490  135.4330  155.4920 C   0  0  0  0  0  0  0  0  0  0  0  0
  137.0040  135.8860  155.9410 C   0  0  0  0  0  3  0  0  0  0  0  0
  137.3110  135.9140  157.3050 C   0  0  0  0  0  3  0  0  0  0  0  0
  136.3570  135.4970  158.2240 C   0  0  0  0  0  0  0  0  0  0  0  0
  135.1130  135.0490  157.7890 C   0  0  0  0  0  0  0  0  0  0  0  0
  134.8040  135.0020  156.4360 C   0  0  0  0  0  3  0  0  0  0  0  0
  136.5910  135.5140  159.5720 O   0  0  0  0  0  0  0  0  0  0  0  0
  137.1740  136.1500  159.9370 H   0  0  0  0  0  0  0  0  0  0  0  0
  134.1700  134.6630  158.6990 O   0  0  0  0  0  0  0  0  0  0  0  0
  133.6020  135.3020  159.0850 H   0  0  0  0  0  0  0  0  0  0  0  0
  1  3  1  0  0  0  0
  2  1  2  0  0  0  0
  3  4  1  0  0  0  0
  3 17  1  0  0  0  0
  5  1  1  0  0  0  0
  6  5  1  0  0  0  0
  7 12  2  0  0  0  0
  7  8  1  0  0  0  0
  8  9  2  0  0  0  0
  9 10  1  0  0  0  0
 10  6  1  0  0  0  0
 11 10  2  0  0  0  0
 12 11  1  0  0  0  0
 14 13  1  0  0  0  0
 14  7  1  0  0  0  0
 15 16  1  0  0  0  0
 15 12  1  0  0  0  0
 17 18  1  0  0  0  0
 18 19  1  0  0  0  0
 19 20  2  0  0  0  0
 19 24  1  0  0  0  0
 20 21  1  0  0  0  0
 21 22  2  0  0  0  0
 22 25  1  0  0  0  0
 23 22  1  0  0  0  0
 23 27  1  0  0  0  0
 24 23  2  0  0  0  0
 25 26  1  0  0  0  0
 27 28  1  0  0  0  0
M  END
>  <MODEL>
6

>  <REMARK>
 VINA RESULT:    -6.060     11.769     14.705
 INTER + INTRA:         -11.370
 INTER:                 -10.748
 INTRA:                  -0.622
 UNBOUND:                -2.122
  Name = CHEMBL248778
  12 active torsions:
  status: ('A' for Active; 'I' for Inactive)
    1  A    between atoms: C_1  and  O_2
    2  A    between atoms: O_2  and  C_3
    3  A    between atoms: C_6  and  C_7
    4  A    between atoms: C_7  and  C_8
    5  A    between atoms: C_8  and  C_9
    6  A    between atoms: N_11  and  C_12
    7  A    between atoms: C_12  and  C_13
    8  A    between atoms: C_13  and  C_14
    9  A    between atoms: C_17  and  O_18
   10  A    between atoms: C_19  and  O_20
   11  A    between atoms: C_23  and  O_24
   12  A    between atoms: O_24  and  C_25
                            x       y       z     vdW  Elec       q    Type
                         _______ _______ _______ _____ _____    ______ ____

>  <TORSDO>
F 10

>  <SCORE>
-6.060

>  <RMSD_LB>
11.769

>  <RMSD_UB>
14.705

$$$$
CHEMBL248778
 OpenBabel10162523343D

 28 29  0  0  0  0  0  0  0  0999 V2000
  139.1890  138.3310  154.1400 C   0  0  0  0  0  0  0  0  0  0  0  0
  139.6440  139.3060  154.7320 O   0  0  0  0  0  0  0  0  0  0  0  0
  139.7580  137.8190  152.9930 N   0  0  0  0  0  0  0  0  0  0  0  0
  139.3610  137.0210  152.5730 H   0  0  0  0  0  0  0  0  0  0  0  0
  137.9780  137.5550  154.6280 C   0  0  0  0  0  2  0  0  0  0  0  0
  137.2940  138.2800  155.7870 C   0  0  0  0  0  2  0  0  0  0  0  0
  136.5220  135.6770  159.1770 C   0  0  0  0  0  0  0  0  0  0  0  0
  136.6570  135.1580  157.8830 C   0  0  0  0  0  3  0  0  0  0  0  0
  136.9080  135.9970  156.7890 C   0  0  0  0  0  3  0  0  0  0  0  0
  137.0200  137.3770  156.9650 C   0  0  0  0  0  0  0  0  0  0  0  0
  136.8740  137.8980  158.2560 C   0  0  0  0  0  3  0  0  0  0  0  0
  136.6470  137.0630  159.3650 C   0  0  0  0  0  0  0  0  0  0  0  0
  136.8900  133.6740  160.4160 C   0  0  0  0  0  1  0  0  0  0  0  0
  136.1860  134.9000  160.2550 O   0  0  0  0  0  0  0  0  0  0  0  0
  136.5280  137.7500  160.5450 O   0  0  0  0  0  0  0  0  0  0  0  0
  136.3410  139.1580  160.4460 C   0  0  0  0  0  1  0  0  0  0  0  0
  140.9300  138.4280  152.3900 C   0  0  0  0  0  2  0  0  0  0  0  0
  142.1360  137.4850  152.3570 C   0  0  0  0  0  2  0  0  0  0  0  0
  143.2630  137.9830  153.2250 C   0  0  0  0  0  0  0  0  0  0  0  0
  144.5590  137.4510  153.0950 C   0  0  0  0  0  3  0  0  0  0  0  0
  145.6190  137.9450  153.8630 C   0  0  0  0  0  3  0  0  0  0  0  0
  145.3830  138.9800  154.7590 C   0  0  0  0  0  0  0  0  0  0  0  0
  144.1050  139.5130  154.8930 C   0  0  0  0  0  0  0  0  0  0  0  0
  143.0430  139.0190  154.1460 C   0  0  0  0  0  3  0  0  0  0  0  0
  146.3800  139.5160  155.5270 O   0  0  0  0  0  0  0  0  0  0  0  0
  146.2200  139.7120  156.4300 H   0  0  0  0  0  0  0  0  0  0  0  0
  143.8840  140.5480  155.7580 O   0  0  0  0  0  0  0  0  0  0  0  0
  144.1980  140.4960  156.6400 H   0  0  0  0  0  0  0  0  0  0  0  0
  1  5  1  0  0  0  0
  1  2  2  0  0  0  0
  3  1  1  0  0  0  0
  4  3  1  0  0  0  0
  5  6  1  0  0  0  0
  6 10  1  0  0  0  0
  7 12  1  0  0  0  0
  7 14  1  0  0  0  0
  8  7  2  0  0  0  0
  9 10  2  0  0  0  0
  9  8  1  0  0  0  0
 10 11  1  0  0  0  0
 11 12  2  0  0  0  0
 12 15  1  0  0  0  0
 14 13  1  0  0  0  0
 16 15  1  0  0  0  0
 17  3  1  0  0  0  0
 18 17  1  0  0  0  0
 18 19  1  0  0  0  0
 19 24  1  0  0  0  0
 20 19  2  0  0  0  0
 20 21  1  0  0  0  0
 21 22  2  0  0  0  0
 22 23  1  0  0  0  0
 22 25  1  0  0  0  0
 23 27  1  0  0  0  0
 24 23  2  0  0  0  0
 25 26  1  0  0  0  0
 27 28  1  0  0  0  0
M  END
>  <MODEL>
7

>  <REMARK>
 VINA RESULT:    -6.026      6.745      8.884
 INTER + INTRA:         -11.318
 INTER:                 -10.623
 INTRA:                  -0.696
 UNBOUND:                -2.122
  Name = CHEMBL248778
  12 active torsions:
  status: ('A' for Active; 'I' for Inactive)
    1  A    between atoms: C_1  and  O_2
    2  A    between atoms: O_2  and  C_3
    3  A    between atoms: C_6  and  C_7
    4  A    between atoms: C_7  and  C_8
    5  A    between atoms: C_8  and  C_9
    6  A    between atoms: N_11  and  C_12
    7  A    between atoms: C_12  and  C_13
    8  A    between atoms: C_13  and  C_14
    9  A    between atoms: C_17  and  O_18
   10  A    between atoms: C_19  and  O_20
   11  A    between atoms: C_23  and  O_24
   12  A    between atoms: O_24  and  C_25
                            x       y       z     vdW  Elec       q    Type
                         _______ _______ _______ _____ _____    ______ ____

>  <TORSDO>
F 10

>  <SCORE>
-6.026

>  <RMSD_LB>
6.745

>  <RMSD_UB>
8.884

$$$$
CHEMBL248778
 OpenBabel10162523343D

 28 29  0  0  0  0  0  0  0  0999 V2000
  137.7150  138.3670  155.0290 C   0  0  0  0  0  0  0  0  0  0  0  0
  136.9390  139.2060  155.4770 O   0  0  0  0  0  0  0  0  0  0  0  0
  137.3660  137.0440  154.8480 N   0  0  0  0  0  0  0  0  0  0  0  0
  138.0260  136.4200  154.4650 H   0  0  0  0  0  0  0  0  0  0  0  0
  139.1290  138.6980  154.5830 C   0  0  0  0  0  2  0  0  0  0  0  0
  139.6080  137.7170  153.5130 C   0  0  0  0  0  2  0  0  0  0  0  0
  138.5730  138.9880  149.4900 C   0  0  0  0  0  0  0  0  0  0  0  0
  137.7700  138.0780  150.1900 C   0  0  0  0  0  3  0  0  0  0  0  0
  138.1020  137.6690  151.4880 C   0  0  0  0  0  3  0  0  0  0  0  0
  139.2520  138.1550  152.1130 C   0  0  0  0  0  0  0  0  0  0  0  0
  140.0610  139.0560  151.4100 C   0  0  0  0  0  3  0  0  0  0  0  0
  139.7240  139.4930  150.1160 C   0  0  0  0  0  0  0  0  0  0  0  0
  137.6750  138.3810  147.3670 C   0  0  0  0  0  1  0  0  0  0  0  0
  138.3300  139.3410  148.1880 O   0  0  0  0  0  0  0  0  0  0  0  0
  140.6340  140.3710  149.5860 O   0  0  0  0  0  0  0  0  0  0  0  0
  141.9960  139.9610  149.6000 C   0  0  0  0  0  1  0  0  0  0  0  0
  136.0500  136.5510  155.2090 C   0  0  0  0  0  2  0  0  0  0  0  0
  135.7650  135.1570  154.6440 C   0  0  0  0  0  2  0  0  0  0  0  0
  135.4360  135.2030  153.1730 C   0  0  0  0  0  0  0  0  0  0  0  0
  136.2060  134.4810  152.2420 C   0  0  0  0  0  3  0  0  0  0  0  0
  135.8740  134.4800  150.8830 C   0  0  0  0  0  3  0  0  0  0  0  0
  134.7630  135.1960  150.4550 C   0  0  0  0  0  0  0  0  0  0  0  0
  133.9960  135.9120  151.3700 C   0  0  0  0  0  0  0  0  0  0  0  0
  134.3260  135.9310  152.7180 C   0  0  0  0  0  3  0  0  0  0  0  0
  134.3780  135.2230  149.1430 O   0  0  0  0  0  0  0  0  0  0  0  0
  134.5040  136.0000  148.6350 H   0  0  0  0  0  0  0  0  0  0  0  0
  132.8900  136.5940  150.9460 O   0  0  0  0  0  0  0  0  0  0  0  0
  132.9760  137.4730  150.6310 H   0  0  0  0  0  0  0  0  0  0  0  0
  1  2  2  0  0  0  0
  3  1  1  0  0  0  0
  3 17  1  0  0  0  0
  4  3  1  0  0  0  0
  5  1  1  0  0  0  0
  6  5  1  0  0  0  0
  7 12  2  0  0  0  0
  7  8  1  0  0  0  0
  8  9  2  0  0  0  0
  9 10  1  0  0  0  0
 10  6  1  0  0  0  0
 11 10  2  0  0  0  0
 12 11  1  0  0  0  0
 13 14  1  0  0  0  0
 14  7  1  0  0  0  0
 15 16  1  0  0  0  0
 15 12  1  0  0  0  0
 18 17  1  0  0  0  0
 19 18  1  0  0  0  0
 20 19  2  0  0  0  0
 21 20  1  0  0  0  0
 22 21  2  0  0  0  0
 22 23  1  0  0  0  0
 23 24  2  0  0  0  0
 24 19  1  0  0  0  0
 25 22  1  0  0  0  0
 26 25  1  0  0  0  0
 27 23  1  0  0  0  0
 28 27  1  0  0  0  0
M  END
>  <MODEL>
8

>  <REMARK>
 VINA RESULT:    -5.957      8.286     11.755
 INTER + INTRA:         -11.212
 INTER:                  -9.809
 INTRA:                  -1.403
 UNBOUND:                -2.122
  Name = CHEMBL248778
  12 active torsions:
  status: ('A' for Active; 'I' for Inactive)
    1  A    between atoms: C_1  and  O_2
    2  A    between atoms: O_2  and  C_3
    3  A    between atoms: C_6  and  C_7
    4  A    between atoms: C_7  and  C_8
    5  A    between atoms: C_8  and  C_9
    6  A    between atoms: N_11  and  C_12
    7  A    between atoms: C_12  and  C_13
    8  A    between atoms: C_13  and  C_14
    9  A    between atoms: C_17  and  O_18
   10  A    between atoms: C_19  and  O_20
   11  A    between atoms: C_23  and  O_24
   12  A    between atoms: O_24  and  C_25
                            x       y       z     vdW  Elec       q    Type
                         _______ _______ _______ _____ _____    ______ ____

>  <TORSDO>
F 10

>  <SCORE>
-5.957

>  <RMSD_LB>
8.286

>  <RMSD_UB>
11.755

$$$$
CHEMBL248778
 OpenBabel10162523343D

 28 29  0  0  0  0  0  0  0  0999 V2000
  144.7380  136.2840  148.9980 C   0  0  0  0  0  0  0  0  0  0  0  0
  144.6370  136.8490  147.9120 O   0  0  0  0  0  0  0  0  0  0  0  0
  143.6460  135.9090  149.7520 N   0  0  0  0  0  0  0  0  0  0  0  0
  143.7890  135.4400  150.6070 H   0  0  0  0  0  0  0  0  0  0  0  0
  146.0730  135.8970  149.6100 C   0  0  0  0  0  2  0  0  0  0  0  0
  146.0320  136.0240  151.1330 C   0  0  0  0  0  2  0  0  0  0  0  0
  147.7750  139.7360  152.5670 C   0  0  0  0  0  0  0  0  0  0  0  0
  147.2710  139.6300  151.2640 C   0  0  0  0  0  3  0  0  0  0  0  0
  146.7080  138.4330  150.8020 C   0  0  0  0  0  3  0  0  0  0  0  0
  146.6430  137.3120  151.6310 C   0  0  0  0  0  0  0  0  0  0  0  0
  147.1560  137.4140  152.9300 C   0  0  0  0  0  3  0  0  0  0  0  0
  147.7020  138.6170  153.4120 C   0  0  0  0  0  0  0  0  0  0  0  0
  147.6320  141.8020  153.7470 C   0  0  0  0  0  1  0  0  0  0  0  0
  148.4150  140.8590  153.0250 O   0  0  0  0  0  0  0  0  0  0  0  0
  148.1550  138.5270  154.7030 O   0  0  0  0  0  0  0  0  0  0  0  0
  147.1650  138.5190  155.7260 C   0  0  0  0  0  1  0  0  0  0  0  0
  142.2900  136.1880  149.3150 C   0  0  0  0  0  2  0  0  0  0  0  0
  141.4670  136.9240  150.3750 C   0  0  0  0  0  2  0  0  0  0  0  0
  142.3260  137.8110  151.2400 C   0  0  0  0  0  0  0  0  0  0  0  0
  142.7120  139.0890  150.7980 C   0  0  0  0  0  3  0  0  0  0  0  0
  143.4670  139.9350  151.6170 C   0  0  0  0  0  3  0  0  0  0  0  0
  143.8310  139.5030  152.8860 C   0  0  0  0  0  0  0  0  0  0  0  0
  143.4530  138.2400  153.3320 C   0  0  0  0  0  0  0  0  0  0  0  0
  142.7160  137.3870  152.5200 C   0  0  0  0  0  3  0  0  0  0  0  0
  144.5560  140.2880  153.7400 O   0  0  0  0  0  0  0  0  0  0  0  0
  144.1590  140.6210  154.5200 H   0  0  0  0  0  0  0  0  0  0  0  0
  143.7920  137.8300  154.5900 O   0  0  0  0  0  0  0  0  0  0  0  0
  144.5700  138.1620  154.9960 H   0  0  0  0  0  0  0  0  0  0  0  0
  1  5  1  0  0  0  0
  1  3  1  0  0  0  0
  2  1  2  0  0  0  0
  3  4  1  0  0  0  0
  5  6  1  0  0  0  0
  6 10  1  0  0  0  0
  7 14  1  0  0  0  0
  7 12  1  0  0  0  0
  8  7  2  0  0  0  0
  9  8  1  0  0  0  0
  9 10  2  0  0  0  0
 10 11  1  0  0  0  0
 11 12  2  0  0  0  0
 12 15  1  0  0  0  0
 14 13  1  0  0  0  0
 15 16  1  0  0  0  0
 17  3  1  0  0  0  0
 17 18  1  0  0  0  0
 18 19  1  0  0  0  0
 19 24  1  0  0  0  0
 20 19  2  0  0  0  0
 20 21  1  0  0  0  0
 21 22  2  0  0  0  0
 22 23  1  0  0  0  0
 22 25  1  0  0  0  0
 23 27  1  0  0  0  0
 24 23  2  0  0  0  0
 25 26  1  0  0  0  0
 27 28  1  0  0  0  0
M  END
>  <MODEL>
9

>  <REMARK>
 VINA RESULT:    -5.869      2.252      4.382
 INTER + INTRA:         -11.078
 INTER:                  -8.957
 INTRA:                  -2.122
 UNBOUND:                -2.122
  Name = CHEMBL248778
  12 active torsions:
  status: ('A' for Active; 'I' for Inactive)
    1  A    between atoms: C_1  and  O_2
    2  A    between atoms: O_2  and  C_3
    3  A    between atoms: C_6  and  C_7
    4  A    between atoms: C_7  and  C_8
    5  A    between atoms: C_8  and  C_9
    6  A    between atoms: N_11  and  C_12
    7  A    between atoms: C_12  and  C_13
    8  A    between atoms: C_13  and  C_14
    9  A    between atoms: C_17  and  O_18
   10  A    between atoms: C_19  and  O_20
   11  A    between atoms: C_23  and  O_24
   12  A    between atoms: O_24  and  C_25
                            x       y       z     vdW  Elec       q    Type
                         _______ _______ _______ _____ _____    ______ ____

>  <TORSDO>
F 10

>  <SCORE>
-5.869

>  <RMSD_LB>
2.252

>  <RMSD_UB>
4.382

$$$$
