CHEMBL308306
 OpenBabel10172500313D

 21 21  0  0  0  0  0  0  0  0999 V2000
  148.4430  141.2870  153.9590 C   0  0  0  0  0  0  0  0  0  0  0  0
  147.5110  141.9640  154.3940 O   0  0  0  0  0  0  0  0  0  0  0  0
  148.6080  139.9540  154.2530 N   0  0  0  0  0  0  0  0  0  0  0  0
  149.3780  139.4700  153.8770 H   0  0  0  0  0  0  0  0  0  0  0  0
  149.4940  141.8840  153.0470 C   0  0  0  0  0  2  0  0  0  0  0  0
  148.9100  142.4190  151.7440 C   0  0  0  0  0  2  0  0  0  0  0  0
  147.9280  141.4360  151.1100 C   0  0  0  0  0  2  0  0  0  0  0  0
  146.8030  142.1800  150.4010 C   0  0  0  0  0  2  0  0  0  0  0  0
  145.5750  142.2790  151.2980 C   0  0  0  0  0  2  0  0  0  0  0  0
  145.2720  140.9320  151.9440 C   0  0  0  0  0  2  0  0  0  0  0  0
  143.4820  140.3790  150.2820 C   0  0  0  0  0  1  0  0  0  0  0  0
  144.7890  139.9260  150.9040 C   0  0  0  0  0  2  0  0  0  0  0  0
  147.6790  139.2470  155.1030 C   0  0  0  0  0  2  0  0  0  0  0  0
  146.7360  138.3810  154.3080 C   0  0  0  0  0  0  0  0  0  0  0  0
  147.2270  137.5530  153.2950 C   0  0  0  0  0  3  0  0  0  0  0  0
  146.3340  136.7820  152.5710 C   0  0  0  0  0  3  0  0  0  0  0  0
  145.0050  136.7780  152.7840 N   0  0  0  0  0  0  0  0  0  0  0  0
  144.5400  137.5760  153.7650 C   0  0  0  0  0  0  0  0  0  0  0  0
  145.3530  138.3850  154.5530 C   0  0  0  0  0  3  0  0  0  0  0  0
  143.1800  137.6050  154.0080 O   0  0  0  0  0  0  0  0  0  0  0  0
  142.4230  137.7640  152.8040 C   0  0  0  0  0  1  0  0  0  0  0  0
  1  3  1  0  0  0  0
  1  2  2  0  0  0  0
  3 13  1  0  0  0  0
  4  3  1  0  0  0  0
  5  1  1  0  0  0  0
  6  5  1  0  0  0  0
  7  6  1  0  0  0  0
  8  7  1  0  0  0  0
  8  9  1  0  0  0  0
  9 10  1  0  0  0  0
 11 12  1  0  0  0  0
 12 10  1  0  0  0  0
 14 19  2  0  0  0  0
 14 13  1  0  0  0  0
 15 14  1  0  0  0  0
 16 17  1  0  0  0  0
 16 15  2  0  0  0  0
 17 18  2  0  0  0  0
 18 20  1  0  0  0  0
 18 19  1  0  0  0  0
 21 20  1  0  0  0  0
M  END
>  <MODEL>
1

>  <REMARK>
 VINA RESULT:    -5.841      0.000      0.000
 INTER + INTRA:         -10.058
 INTER:                  -8.462
 INTRA:                  -1.596
 UNBOUND:                -0.803
  Name = CHEMBL308306
  12 active torsions:
  status: ('A' for Active; 'I' for Inactive)
    1  A    between atoms: C_1  and  C_2
    2  A    between atoms: C_2  and  C_3
    3  A    between atoms: C_3  and  C_4
    4  A    between atoms: C_4  and  C_5
    5  A    between atoms: C_5  and  C_6
    6  A    between atoms: C_6  and  C_7
    7  A    between atoms: C_7  and  C_8
    8  A    between atoms: C_8  and  C_9
    9  A    between atoms: N_11  and  C_12
   10  A    between atoms: C_12  and  C_13
   11  A    between atoms: C_17  and  O_18
   12  A    between atoms: O_18  and  C_19
                            x       y       z     vdW  Elec       q    Type
                         _______ _______ _______ _____ _____    ______ ____

>  <TORSDO>
F 10

>  <SCORE>
-5.841

>  <RMSD_LB>
0.000

>  <RMSD_UB>
0.000

$$$$
CHEMBL308306
 OpenBabel10172500313D

 21 21  0  0  0  0  0  0  0  0999 V2000
  134.5750  134.5520  146.1770 C   0  0  0  0  0  0  0  0  0  0  0  0
  135.2350  135.5780  146.3380 O   0  0  0  0  0  0  0  0  0  0  0  0
  133.3990  134.3000  146.8440 N   0  0  0  0  0  0  0  0  0  0  0  0
  132.9210  133.4560  146.6730 H   0  0  0  0  0  0  0  0  0  0  0  0
  135.0160  133.4740  145.2100 C   0  0  0  0  0  2  0  0  0  0  0  0
  136.0430  132.5220  145.8160 C   0  0  0  0  0  2  0  0  0  0  0  0
  136.4240  131.4020  144.8500 C   0  0  0  0  0  2  0  0  0  0  0  0
  136.1010  131.7960  143.4140 C   0  0  0  0  0  2  0  0  0  0  0  0
  137.3740  132.1600  142.6570 C   0  0  0  0  0  2  0  0  0  0  0  0
  137.0970  133.2590  141.6390 C   0  0  0  0  0  2  0  0  0  0  0  0
  138.2420  134.5090  143.4820 C   0  0  0  0  0  1  0  0  0  0  0  0
  137.7990  134.5550  142.0320 C   0  0  0  0  0  2  0  0  0  0  0  0
  132.8500  135.2410  147.7910 C   0  0  0  0  0  2  0  0  0  0  0  0
  133.1960  134.8770  149.2110 C   0  0  0  0  0  0  0  0  0  0  0  0
  133.2810  133.5350  149.5920 C   0  0  0  0  0  3  0  0  0  0  0  0
  133.5830  133.2320  150.9090 C   0  0  0  0  0  3  0  0  0  0  0  0
  133.8060  134.1600  151.8580 N   0  0  0  0  0  0  0  0  0  0  0  0
  133.7280  135.4520  151.4820 C   0  0  0  0  0  0  0  0  0  0  0  0
  133.4340  135.8620  150.1850 C   0  0  0  0  0  3  0  0  0  0  0  0
  133.9410  136.4330  152.4300 O   0  0  0  0  0  0  0  0  0  0  0  0
  134.1310  135.8840  153.7380 C   0  0  0  0  0  1  0  0  0  0  0  0
  1  2  2  0  0  0  0
  1  3  1  0  0  0  0
  3 13  1  0  0  0  0
  4  3  1  0  0  0  0
  5  6  1  0  0  0  0
  5  1  1  0  0  0  0
  7  6  1  0  0  0  0
  8  7  1  0  0  0  0
  9  8  1  0  0  0  0
 10 12  1  0  0  0  0
 10  9  1  0  0  0  0
 12 11  1  0  0  0  0
 13 14  1  0  0  0  0
 14 15  1  0  0  0  0
 14 19  2  0  0  0  0
 15 16  2  0  0  0  0
 16 17  1  0  0  0  0
 18 17  2  0  0  0  0
 18 20  1  0  0  0  0
 19 18  1  0  0  0  0
 20 21  1  0  0  0  0
M  END
>  <MODEL>
2

>  <REMARK>
 VINA RESULT:    -5.733     13.036     14.663
 INTER + INTRA:          -9.887
 INTER:                  -8.949
 INTRA:                  -0.938
 UNBOUND:                -0.803
  Name = CHEMBL308306
  12 active torsions:
  status: ('A' for Active; 'I' for Inactive)
    1  A    between atoms: C_1  and  C_2
    2  A    between atoms: C_2  and  C_3
    3  A    between atoms: C_3  and  C_4
    4  A    between atoms: C_4  and  C_5
    5  A    between atoms: C_5  and  C_6
    6  A    between atoms: C_6  and  C_7
    7  A    between atoms: C_7  and  C_8
    8  A    between atoms: C_8  and  C_9
    9  A    between atoms: N_11  and  C_12
   10  A    between atoms: C_12  and  C_13
   11  A    between atoms: C_17  and  O_18
   12  A    between atoms: O_18  and  C_19
                            x       y       z     vdW  Elec       q    Type
                         _______ _______ _______ _____ _____    ______ ____

>  <TORSDO>
F 10

>  <SCORE>
-5.733

>  <RMSD_LB>
13.036

>  <RMSD_UB>
14.663

$$$$
CHEMBL308306
 OpenBabel10172500313D

 21 21  0  0  0  0  0  0  0  0999 V2000
  134.6030  133.5970  146.4810 C   0  0  0  0  0  0  0  0  0  0  0  0
  133.6640  133.0610  145.8910 O   0  0  0  0  0  0  0  0  0  0  0  0
  135.2870  134.6800  145.9810 N   0  0  0  0  0  0  0  0  0  0  0  0
  136.0320  135.0590  146.5010 H   0  0  0  0  0  0  0  0  0  0  0  0
  135.0780  133.0940  147.8270 C   0  0  0  0  0  2  0  0  0  0  0  0
  133.9520  132.5020  148.6680 C   0  0  0  0  0  2  0  0  0  0  0  0
  133.9670  133.0350  150.1000 C   0  0  0  0  0  2  0  0  0  0  0  0
  132.7470  133.9110  150.3600 C   0  0  0  0  0  2  0  0  0  0  0  0
  133.1630  135.2450  150.9690 C   0  0  0  0  0  2  0  0  0  0  0  0
  132.7090  136.4020  150.0870 C   0  0  0  0  0  2  0  0  0  0  0  0
  132.6110  137.1550  147.7010 C   0  0  0  0  0  1  0  0  0  0  0  0
  133.3860  136.3440  148.7210 C   0  0  0  0  0  2  0  0  0  0  0  0
  134.9400  135.2740  144.7110 C   0  0  0  0  0  2  0  0  0  0  0  0
  134.7880  136.7690  144.8130 C   0  0  0  0  0  0  0  0  0  0  0  0
  135.7390  137.5280  145.5000 C   0  0  0  0  0  3  0  0  0  0  0  0
  135.5620  138.8980  145.5900 C   0  0  0  0  0  3  0  0  0  0  0  0
  134.5200  139.5560  145.0500 N   0  0  0  0  0  0  0  0  0  0  0  0
  133.6090  138.8180  144.3850 C   0  0  0  0  0  0  0  0  0  0  0  0
  133.6960  137.4370  144.2330 C   0  0  0  0  0  3  0  0  0  0  0  0
  132.5190  139.4550  143.8240 O   0  0  0  0  0  0  0  0  0  0  0  0
  132.2100  138.9460  142.5240 C   0  0  0  0  0  1  0  0  0  0  0  0
  1  5  1  0  0  0  0
  2  1  2  0  0  0  0
  3  1  1  0  0  0  0
  3  4  1  0  0  0  0
  5  6  1  0  0  0  0
  6  7  1  0  0  0  0
  7  8  1  0  0  0  0
  8  9  1  0  0  0  0
 10  9  1  0  0  0  0
 11 12  1  0  0  0  0
 12 10  1  0  0  0  0
 13 14  1  0  0  0  0
 13  3  1  0  0  0  0
 14 15  1  0  0  0  0
 15 16  2  0  0  0  0
 17 16  1  0  0  0  0
 18 17  2  0  0  0  0
 19 18  1  0  0  0  0
 19 14  2  0  0  0  0
 20 18  1  0  0  0  0
 21 20  1  0  0  0  0
M  END
>  <MODEL>
3

>  <REMARK>
 VINA RESULT:    -5.668     13.608     15.352
 INTER + INTRA:          -9.784
 INTER:                  -8.386
 INTRA:                  -1.398
 UNBOUND:                -0.803
  Name = CHEMBL308306
  12 active torsions:
  status: ('A' for Active; 'I' for Inactive)
    1  A    between atoms: C_1  and  C_2
    2  A    between atoms: C_2  and  C_3
    3  A    between atoms: C_3  and  C_4
    4  A    between atoms: C_4  and  C_5
    5  A    between atoms: C_5  and  C_6
    6  A    between atoms: C_6  and  C_7
    7  A    between atoms: C_7  and  C_8
    8  A    between atoms: C_8  and  C_9
    9  A    between atoms: N_11  and  C_12
   10  A    between atoms: C_12  and  C_13
   11  A    between atoms: C_17  and  O_18
   12  A    between atoms: O_18  and  C_19
                            x       y       z     vdW  Elec       q    Type
                         _______ _______ _______ _____ _____    ______ ____

>  <TORSDO>
F 10

>  <SCORE>
-5.668

>  <RMSD_LB>
13.608

>  <RMSD_UB>
15.352

$$$$
CHEMBL308306
 OpenBabel10172500313D

 21 21  0  0  0  0  0  0  0  0999 V2000
  144.9610  138.0810  153.8250 C   0  0  0  0  0  0  0  0  0  0  0  0
  145.2630  136.9250  154.1240 O   0  0  0  0  0  0  0  0  0  0  0  0
  144.2470  138.4040  152.6940 N   0  0  0  0  0  0  0  0  0  0  0  0
  144.0420  139.3490  152.5090 H   0  0  0  0  0  0  0  0  0  0  0  0
  145.3590  139.2510  154.6970 C   0  0  0  0  0  2  0  0  0  0  0  0
  146.8700  139.3890  154.8480 C   0  0  0  0  0  2  0  0  0  0  0  0
  147.5220  139.9560  153.5880 C   0  0  0  0  0  2  0  0  0  0  0  0
  147.8120  141.4430  153.7550 C   0  0  0  0  0  2  0  0  0  0  0  0
  147.4260  142.2100  152.4950 C   0  0  0  0  0  2  0  0  0  0  0  0
  145.9130  142.2190  152.3150 C   0  0  0  0  0  2  0  0  0  0  0  0
  146.7730  142.6760  150.0080 C   0  0  0  0  0  1  0  0  0  0  0  0
  145.5400  142.3990  150.8460 C   0  0  0  0  0  2  0  0  0  0  0  0
  143.7920  137.3910  151.7720 C   0  0  0  0  0  2  0  0  0  0  0  0
  142.2940  137.4030  151.6180 C   0  0  0  0  0  0  0  0  0  0  0  0
  141.4820  137.8350  152.6690 C   0  0  0  0  0  3  0  0  0  0  0  0
  140.1080  137.8180  152.5030 C   0  0  0  0  0  3  0  0  0  0  0  0
  139.4950  137.4080  151.3770 N   0  0  0  0  0  0  0  0  0  0  0  0
  140.2840  136.9980  150.3650 C   0  0  0  0  0  0  0  0  0  0  0  0
  141.6750  136.9800  150.4290 C   0  0  0  0  0  3  0  0  0  0  0  0
  139.6920  136.5610  149.1960 O   0  0  0  0  0  0  0  0  0  0  0  0
  140.5780  135.7550  148.4140 C   0  0  0  0  0  1  0  0  0  0  0  0
  1  2  2  0  0  0  0
  1  5  1  0  0  0  0
  3  1  1  0  0  0  0
  4  3  1  0  0  0  0
  5  6  1  0  0  0  0
  7  8  1  0  0  0  0
  7  6  1  0  0  0  0
  9  8  1  0  0  0  0
 10  9  1  0  0  0  0
 11 12  1  0  0  0  0
 12 10  1  0  0  0  0
 13  3  1  0  0  0  0
 14 13  1  0  0  0  0
 14 15  1  0  0  0  0
 16 15  2  0  0  0  0
 17 16  1  0  0  0  0
 18 19  1  0  0  0  0
 18 17  2  0  0  0  0
 19 14  2  0  0  0  0
 20 18  1  0  0  0  0
 21 20  1  0  0  0  0
M  END
>  <MODEL>
4

>  <REMARK>
 VINA RESULT:    -5.634      2.670      4.832
 INTER + INTRA:          -9.730
 INTER:                  -8.825
 INTRA:                  -0.905
 UNBOUND:                -0.803
  Name = CHEMBL308306
  12 active torsions:
  status: ('A' for Active; 'I' for Inactive)
    1  A    between atoms: C_1  and  C_2
    2  A    between atoms: C_2  and  C_3
    3  A    between atoms: C_3  and  C_4
    4  A    between atoms: C_4  and  C_5
    5  A    between atoms: C_5  and  C_6
    6  A    between atoms: C_6  and  C_7
    7  A    between atoms: C_7  and  C_8
    8  A    between atoms: C_8  and  C_9
    9  A    between atoms: N_11  and  C_12
   10  A    between atoms: C_12  and  C_13
   11  A    between atoms: C_17  and  O_18
   12  A    between atoms: O_18  and  C_19
                            x       y       z     vdW  Elec       q    Type
                         _______ _______ _______ _____ _____    ______ ____

>  <TORSDO>
F 10

>  <SCORE>
-5.634

>  <RMSD_LB>
2.670

>  <RMSD_UB>
4.832

$$$$
CHEMBL308306
 OpenBabel10172500313D

 21 21  0  0  0  0  0  0  0  0999 V2000
  145.1190  138.1620  150.8690 C   0  0  0  0  0  0  0  0  0  0  0  0
  145.9270  137.6210  151.6240 O   0  0  0  0  0  0  0  0  0  0  0  0
  143.7560  138.0480  151.0160 N   0  0  0  0  0  0  0  0  0  0  0  0
  143.1630  138.5020  150.3750 H   0  0  0  0  0  0  0  0  0  0  0  0
  145.5760  139.0120  149.7020 C   0  0  0  0  0  2  0  0  0  0  0  0
  146.4570  140.1800  150.1320 C   0  0  0  0  0  2  0  0  0  0  0  0
  145.8830  141.5240  149.6850 C   0  0  0  0  0  2  0  0  0  0  0  0
  145.8670  142.5140  150.8430 C   0  0  0  0  0  2  0  0  0  0  0  0
  147.0040  142.2220  151.8160 C   0  0  0  0  0  2  0  0  0  0  0  0
  146.4900  142.2030  153.2500 C   0  0  0  0  0  2  0  0  0  0  0  0
  148.8860  141.8450  153.8850 C   0  0  0  0  0  1  0  0  0  0  0  0
  147.4500  141.4450  154.1630 C   0  0  0  0  0  2  0  0  0  0  0  0
  143.1740  137.2770  152.0890 C   0  0  0  0  0  2  0  0  0  0  0  0
  141.7240  137.6240  152.3080 C   0  0  0  0  0  0  0  0  0  0  0  0
  140.7810  137.3680  151.3100 C   0  0  0  0  0  3  0  0  0  0  0  0
  139.4590  137.7140  151.5350 C   0  0  0  0  0  3  0  0  0  0  0  0
  139.0190  138.2880  152.6700 N   0  0  0  0  0  0  0  0  0  0  0  0
  139.9340  138.5280  153.6300 C   0  0  0  0  0  0  0  0  0  0  0  0
  141.2840  138.2140  153.5050 C   0  0  0  0  0  3  0  0  0  0  0  0
  139.5220  139.1250  154.8060 O   0  0  0  0  0  0  0  0  0  0  0  0
  138.8830  138.1940  155.6840 C   0  0  0  0  0  1  0  0  0  0  0  0
  1  3  1  0  0  0  0
  1  2  2  0  0  0  0
  3 13  1  0  0  0  0
  4  3  1  0  0  0  0
  5  6  1  0  0  0  0
  5  1  1  0  0  0  0
  7  6  1  0  0  0  0
  7  8  1  0  0  0  0
  8  9  1  0  0  0  0
  9 10  1  0  0  0  0
 10 12  1  0  0  0  0
 11 12  1  0  0  0  0
 13 14  1  0  0  0  0
 14 19  2  0  0  0  0
 15 16  2  0  0  0  0
 15 14  1  0  0  0  0
 16 17  1  0  0  0  0
 17 18  2  0  0  0  0
 18 20  1  0  0  0  0
 19 18  1  0  0  0  0
 20 21  1  0  0  0  0
M  END
>  <MODEL>
5

>  <REMARK>
 VINA RESULT:    -5.633      2.818      4.987
 INTER + INTRA:          -9.728
 INTER:                  -9.056
 INTRA:                  -0.673
 UNBOUND:                -0.803
  Name = CHEMBL308306
  12 active torsions:
  status: ('A' for Active; 'I' for Inactive)
    1  A    between atoms: C_1  and  C_2
    2  A    between atoms: C_2  and  C_3
    3  A    between atoms: C_3  and  C_4
    4  A    between atoms: C_4  and  C_5
    5  A    between atoms: C_5  and  C_6
    6  A    between atoms: C_6  and  C_7
    7  A    between atoms: C_7  and  C_8
    8  A    between atoms: C_8  and  C_9
    9  A    between atoms: N_11  and  C_12
   10  A    between atoms: C_12  and  C_13
   11  A    between atoms: C_17  and  O_18
   12  A    between atoms: O_18  and  C_19
                            x       y       z     vdW  Elec       q    Type
                         _______ _______ _______ _____ _____    ______ ____

>  <TORSDO>
F 10

>  <SCORE>
-5.633

>  <RMSD_LB>
2.818

>  <RMSD_UB>
4.987

$$$$
CHEMBL308306
 OpenBabel10172500313D

 21 21  0  0  0  0  0  0  0  0999 V2000
  146.1550  138.8620  150.4860 C   0  0  0  0  0  0  0  0  0  0  0  0
  145.5830  138.5110  149.4540 O   0  0  0  0  0  0  0  0  0  0  0  0
  146.0280  138.1950  151.6820 N   0  0  0  0  0  0  0  0  0  0  0  0
  146.5090  138.5300  152.4730 H   0  0  0  0  0  0  0  0  0  0  0  0
  147.0610  140.0740  150.5130 C   0  0  0  0  0  2  0  0  0  0  0  0
  146.4850  141.2590  149.7440 C   0  0  0  0  0  2  0  0  0  0  0  0
  146.3490  142.5000  150.6250 C   0  0  0  0  0  2  0  0  0  0  0  0
  145.5410  142.1850  151.8770 C   0  0  0  0  0  2  0  0  0  0  0  0
  146.3770  142.4180  153.1310 C   0  0  0  0  0  2  0  0  0  0  0  0
  146.4580  141.1460  153.9650 C   0  0  0  0  0  2  0  0  0  0  0  0
  148.8580  141.7700  153.6130 C   0  0  0  0  0  1  0  0  0  0  0  0
  147.9100  140.7650  154.2390 C   0  0  0  0  0  2  0  0  0  0  0  0
  145.2040  137.0160  151.8060 C   0  0  0  0  0  2  0  0  0  0  0  0
  143.8080  137.3510  152.2620 C   0  0  0  0  0  0  0  0  0  0  0  0
  143.5960  137.9190  153.5210 C   0  0  0  0  0  3  0  0  0  0  0  0
  142.3000  138.2000  153.9170 C   0  0  0  0  0  3  0  0  0  0  0  0
  141.2160  137.9600  153.1570 N   0  0  0  0  0  0  0  0  0  0  0  0
  141.4280  137.4170  151.9420 C   0  0  0  0  0  0  0  0  0  0  0  0
  142.6900  137.1020  151.4470 C   0  0  0  0  0  3  0  0  0  0  0  0
  140.3390  137.1480  151.1350 O   0  0  0  0  0  0  0  0  0  0  0  0
  140.5560  137.5650  149.7840 C   0  0  0  0  0  1  0  0  0  0  0  0
  1  5  1  0  0  0  0
  1  3  1  0  0  0  0
  2  1  2  0  0  0  0
  3 13  1  0  0  0  0
  3  4  1  0  0  0  0
  6  5  1  0  0  0  0
  6  7  1  0  0  0  0
  7  8  1  0  0  0  0
  8  9  1  0  0  0  0
  9 10  1  0  0  0  0
 10 12  1  0  0  0  0
 11 12  1  0  0  0  0
 13 14  1  0  0  0  0
 14 15  1  0  0  0  0
 15 16  2  0  0  0  0
 17 16  1  0  0  0  0
 18 17  2  0  0  0  0
 19 18  1  0  0  0  0
 19 14  2  0  0  0  0
 20 18  1  0  0  0  0
 21 20  1  0  0  0  0
M  END
>  <MODEL>
6

>  <REMARK>
 VINA RESULT:    -5.626      2.509      4.080
 INTER + INTRA:          -9.717
 INTER:                  -8.459
 INTRA:                  -1.258
 UNBOUND:                -0.803
  Name = CHEMBL308306
  12 active torsions:
  status: ('A' for Active; 'I' for Inactive)
    1  A    between atoms: C_1  and  C_2
    2  A    between atoms: C_2  and  C_3
    3  A    between atoms: C_3  and  C_4
    4  A    between atoms: C_4  and  C_5
    5  A    between atoms: C_5  and  C_6
    6  A    between atoms: C_6  and  C_7
    7  A    between atoms: C_7  and  C_8
    8  A    between atoms: C_8  and  C_9
    9  A    between atoms: N_11  and  C_12
   10  A    between atoms: C_12  and  C_13
   11  A    between atoms: C_17  and  O_18
   12  A    between atoms: O_18  and  C_19
                            x       y       z     vdW  Elec       q    Type
                         _______ _______ _______ _____ _____    ______ ____

>  <TORSDO>
F 10

>  <SCORE>
-5.626

>  <RMSD_LB>
2.509

>  <RMSD_UB>
4.080

$$$$
CHEMBL308306
 OpenBabel10172500313D

 21 21  0  0  0  0  0  0  0  0999 V2000
  144.9770  140.8850  150.2010 C   0  0  0  0  0  0  0  0  0  0  0  0
  145.9640  141.0750  149.4900 O   0  0  0  0  0  0  0  0  0  0  0  0
  144.8220  141.4550  151.4430 N   0  0  0  0  0  0  0  0  0  0  0  0
  144.0100  141.2590  151.9630 H   0  0  0  0  0  0  0  0  0  0  0  0
  143.8390  139.9950  149.7480 C   0  0  0  0  0  2  0  0  0  0  0  0
  143.3230  139.0870  150.8590 C   0  0  0  0  0  2  0  0  0  0  0  0
  143.9360  137.6890  150.7860 C   0  0  0  0  0  2  0  0  0  0  0  0
  144.7980  137.4150  152.0120 C   0  0  0  0  0  2  0  0  0  0  0  0
  146.2680  137.6830  151.7070 C   0  0  0  0  0  2  0  0  0  0  0  0
  146.6330  137.1590  150.3240 C   0  0  0  0  0  2  0  0  0  0  0  0
  148.4330  135.4570  149.9620 C   0  0  0  0  0  1  0  0  0  0  0  0
  146.9920  135.6780  150.3800 C   0  0  0  0  0  2  0  0  0  0  0  0
  145.8220  142.3340  152.0020 C   0  0  0  0  0  2  0  0  0  0  0  0
  146.7580  141.6020  152.9270 C   0  0  0  0  0  0  0  0  0  0  0  0
  148.1210  141.9100  152.9380 C   0  0  0  0  0  3  0  0  0  0  0  0
  148.9590  141.2090  153.7870 C   0  0  0  0  0  3  0  0  0  0  0  0
  148.5390  140.2360  154.6170 N   0  0  0  0  0  0  0  0  0  0  0  0
  147.2220  139.9480  154.6060 C   0  0  0  0  0  0  0  0  0  0  0  0
  146.2970  140.5960  153.7940 C   0  0  0  0  0  3  0  0  0  0  0  0
  146.7540  138.9490  155.4380 O   0  0  0  0  0  0  0  0  0  0  0  0
  147.8200  138.2290  156.0640 C   0  0  0  0  0  1  0  0  0  0  0  0
  1  3  1  0  0  0  0
  2  1  2  0  0  0  0
  3  4  1  0  0  0  0
  3 13  1  0  0  0  0
  5  1  1  0  0  0  0
  5  6  1  0  0  0  0
  7  6  1  0  0  0  0
  7  8  1  0  0  0  0
  9  8  1  0  0  0  0
 10 12  1  0  0  0  0
 10  9  1  0  0  0  0
 11 12  1  0  0  0  0
 13 14  1  0  0  0  0
 14 15  1  0  0  0  0
 14 19  2  0  0  0  0
 15 16  2  0  0  0  0
 16 17  1  0  0  0  0
 18 17  2  0  0  0  0
 18 20  1  0  0  0  0
 19 18  1  0  0  0  0
 20 21  1  0  0  0  0
M  END
>  <MODEL>
7

>  <REMARK>
 VINA RESULT:    -5.532      2.393      5.131
 INTER + INTRA:          -9.569
 INTER:                  -8.106
 INTRA:                  -1.463
 UNBOUND:                -0.803
  Name = CHEMBL308306
  12 active torsions:
  status: ('A' for Active; 'I' for Inactive)
    1  A    between atoms: C_1  and  C_2
    2  A    between atoms: C_2  and  C_3
    3  A    between atoms: C_3  and  C_4
    4  A    between atoms: C_4  and  C_5
    5  A    between atoms: C_5  and  C_6
    6  A    between atoms: C_6  and  C_7
    7  A    between atoms: C_7  and  C_8
    8  A    between atoms: C_8  and  C_9
    9  A    between atoms: N_11  and  C_12
   10  A    between atoms: C_12  and  C_13
   11  A    between atoms: C_17  and  O_18
   12  A    between atoms: O_18  and  C_19
                            x       y       z     vdW  Elec       q    Type
                         _______ _______ _______ _____ _____    ______ ____

>  <TORSDO>
F 10

>  <SCORE>
-5.532

>  <RMSD_LB>
2.393

>  <RMSD_UB>
5.131

$$$$
CHEMBL308306
 OpenBabel10172500313D

 21 21  0  0  0  0  0  0  0  0999 V2000
  145.1030  141.0580  149.9560 C   0  0  0  0  0  0  0  0  0  0  0  0
  146.1120  141.3620  149.3210 O   0  0  0  0  0  0  0  0  0  0  0  0
  144.8410  141.5230  151.2240 N   0  0  0  0  0  0  0  0  0  0  0  0
  144.0170  141.2370  151.6810 H   0  0  0  0  0  0  0  0  0  0  0  0
  144.0530  140.1350  149.3750 C   0  0  0  0  0  2  0  0  0  0  0  0
  143.5880  139.0720  150.3650 C   0  0  0  0  0  2  0  0  0  0  0  0
  142.2290  139.4140  150.9750 C   0  0  0  0  0  2  0  0  0  0  0  0
  142.1710  138.9830  152.4350 C   0  0  0  0  0  2  0  0  0  0  0  0
  141.4280  137.6590  152.5760 C   0  0  0  0  0  2  0  0  0  0  0  0
  140.0750  137.7270  151.8800 C   0  0  0  0  0  2  0  0  0  0  0  0
  137.9150  137.3610  153.0950 C   0  0  0  0  0  1  0  0  0  0  0  0
  139.0230  138.3520  152.7920 C   0  0  0  0  0  2  0  0  0  0  0  0
  145.7480  142.4180  151.9030 C   0  0  0  0  0  2  0  0  0  0  0  0
  146.6550  141.6840  152.8560 C   0  0  0  0  0  0  0  0  0  0  0  0
  148.0030  142.0340  152.9550 C   0  0  0  0  0  3  0  0  0  0  0  0
  148.8150  141.3290  153.8270 C   0  0  0  0  0  3  0  0  0  0  0  0
  148.3820  140.3150  154.5980 N   0  0  0  0  0  0  0  0  0  0  0  0
  147.0790  139.9850  154.5010 C   0  0  0  0  0  0  0  0  0  0  0  0
  146.1790  140.6330  153.6590 C   0  0  0  0  0  3  0  0  0  0  0  0
  146.5980  138.9430  155.2690 O   0  0  0  0  0  0  0  0  0  0  0  0
  147.6440  138.2740  155.9810 C   0  0  0  0  0  1  0  0  0  0  0  0
  1  3  1  0  0  0  0
  2  1  2  0  0  0  0
  3  4  1  0  0  0  0
  3 13  1  0  0  0  0
  5  1  1  0  0  0  0
  5  6  1  0  0  0  0
  6  7  1  0  0  0  0
  7  8  1  0  0  0  0
  8  9  1  0  0  0  0
 10  9  1  0  0  0  0
 10 12  1  0  0  0  0
 12 11  1  0  0  0  0
 13 14  1  0  0  0  0
 14 15  1  0  0  0  0
 14 19  2  0  0  0  0
 15 16  2  0  0  0  0
 16 17  1  0  0  0  0
 18 17  2  0  0  0  0
 18 20  1  0  0  0  0
 19 18  1  0  0  0  0
 20 21  1  0  0  0  0
M  END
>  <MODEL>
8

>  <REMARK>
 VINA RESULT:    -5.478      2.513      5.437
 INTER + INTRA:          -9.483
 INTER:                  -8.681
 INTRA:                  -0.803
 UNBOUND:                -0.803
  Name = CHEMBL308306
  12 active torsions:
  status: ('A' for Active; 'I' for Inactive)
    1  A    between atoms: C_1  and  C_2
    2  A    between atoms: C_2  and  C_3
    3  A    between atoms: C_3  and  C_4
    4  A    between atoms: C_4  and  C_5
    5  A    between atoms: C_5  and  C_6
    6  A    between atoms: C_6  and  C_7
    7  A    between atoms: C_7  and  C_8
    8  A    between atoms: C_8  and  C_9
    9  A    between atoms: N_11  and  C_12
   10  A    between atoms: C_12  and  C_13
   11  A    between atoms: C_17  and  O_18
   12  A    between atoms: O_18  and  C_19
                            x       y       z     vdW  Elec       q    Type
                         _______ _______ _______ _____ _____    ______ ____

>  <TORSDO>
F 10

>  <SCORE>
-5.478

>  <RMSD_LB>
2.513

>  <RMSD_UB>
5.437

$$$$
CHEMBL308306
 OpenBabel10172500313D

 21 21  0  0  0  0  0  0  0  0999 V2000
  137.7730  137.7030  156.1960 C   0  0  0  0  0  0  0  0  0  0  0  0
  138.4490  138.1250  157.1330 O   0  0  0  0  0  0  0  0  0  0  0  0
  138.0120  138.0370  154.8830 N   0  0  0  0  0  0  0  0  0  0  0  0
  137.4310  137.6680  154.1790 H   0  0  0  0  0  0  0  0  0  0  0  0
  136.6080  136.7630  156.4230 C   0  0  0  0  0  2  0  0  0  0  0  0
  136.3070  135.8910  155.2090 C   0  0  0  0  0  2  0  0  0  0  0  0
  134.9860  135.1380  155.3580 C   0  0  0  0  0  2  0  0  0  0  0  0
  134.3940  134.8130  153.9930 C   0  0  0  0  0  2  0  0  0  0  0  0
  135.4640  134.2470  153.0640 C   0  0  0  0  0  2  0  0  0  0  0  0
  135.0550  134.4200  151.6070 C   0  0  0  0  0  2  0  0  0  0  0  0
  136.3710  136.2690  150.5480 C   0  0  0  0  0  1  0  0  0  0  0  0
  136.2610  134.7690  150.7400 C   0  0  0  0  0  2  0  0  0  0  0  0
  139.0950  138.9170  154.5130 C   0  0  0  0  0  2  0  0  0  0  0  0
  139.8920  138.3720  153.3570 C   0  0  0  0  0  0  0  0  0  0  0  0
  139.2420  137.9070  152.2110 C   0  0  0  0  0  3  0  0  0  0  0  0
  140.0020  137.3960  151.1720 C   0  0  0  0  0  3  0  0  0  0  0  0
  141.3450  137.3190  151.1950 N   0  0  0  0  0  0  0  0  0  0  0  0
  141.9660  137.7740  152.3010 C   0  0  0  0  0  0  0  0  0  0  0  0
  141.2960  138.3100  153.3970 C   0  0  0  0  0  3  0  0  0  0  0  0
  143.3440  137.7030  152.3660 O   0  0  0  0  0  0  0  0  0  0  0  0
  143.8020  137.3300  153.6690 C   0  0  0  0  0  1  0  0  0  0  0  0
  1  5  1  0  0  0  0
  1  2  2  0  0  0  0
  3  1  1  0  0  0  0
  4  3  1  0  0  0  0
  6  7  1  0  0  0  0
  6  5  1  0  0  0  0
  8  7  1  0  0  0  0
  9  8  1  0  0  0  0
 10  9  1  0  0  0  0
 11 12  1  0  0  0  0
 12 10  1  0  0  0  0
 13  3  1  0  0  0  0
 14 19  2  0  0  0  0
 14 13  1  0  0  0  0
 15 14  1  0  0  0  0
 16 17  1  0  0  0  0
 16 15  2  0  0  0  0
 17 18  2  0  0  0  0
 18 20  1  0  0  0  0
 18 19  1  0  0  0  0
 20 21  1  0  0  0  0
M  END
>  <MODEL>
9

>  <REMARK>
 VINA RESULT:    -5.408      5.678      9.943
 INTER + INTRA:          -9.373
 INTER:                  -8.429
 INTRA:                  -0.943
 UNBOUND:                -0.803
  Name = CHEMBL308306
  12 active torsions:
  status: ('A' for Active; 'I' for Inactive)
    1  A    between atoms: C_1  and  C_2
    2  A    between atoms: C_2  and  C_3
    3  A    between atoms: C_3  and  C_4
    4  A    between atoms: C_4  and  C_5
    5  A    between atoms: C_5  and  C_6
    6  A    between atoms: C_6  and  C_7
    7  A    between atoms: C_7  and  C_8
    8  A    between atoms: C_8  and  C_9
    9  A    between atoms: N_11  and  C_12
   10  A    between atoms: C_12  and  C_13
   11  A    between atoms: C_17  and  O_18
   12  A    between atoms: O_18  and  C_19
                            x       y       z     vdW  Elec       q    Type
                         _______ _______ _______ _____ _____    ______ ____

>  <TORSDO>
F 10

>  <SCORE>
-5.408

>  <RMSD_LB>
5.678

>  <RMSD_UB>
9.943

$$$$
