CHEMBL4172855
 OpenBabel10172500393D

 36 38  0  0  1  0  0  0  0  0999 V2000
  145.2670  138.5970  149.9810 C   0  0  2  0  0  3  0  0  0  0  0  0
  144.9020  137.5180  148.9650 C   0  0  0  0  0  0  0  0  0  0  0  0
  145.7170  137.0290  148.1820 O   0  0  0  0  0  0  0  0  0  0  0  0
  143.4740  137.0070  148.9710 C   0  0  0  0  0  2  0  0  0  0  0  0
  143.0960  136.4810  150.3540 C   0  0  0  0  0  2  0  0  0  0  0  0
  140.0990  138.7710  150.9830 C   0  0  0  0  0  0  0  0  0  0  0  0
  141.0680  137.9970  150.3320 C   0  0  0  0  0  3  0  0  0  0  0  0
  142.0780  137.3420  151.0600 C   0  0  0  0  0  0  0  0  0  0  0  0
  142.1010  137.4610  152.4550 C   0  0  0  0  0  3  0  0  0  0  0  0
  141.1440  138.2340  153.1130 C   0  0  0  0  0  3  0  0  0  0  0  0
  140.1530  138.8830  152.3770 C   0  0  0  0  0  0  0  0  0  0  0  0
  139.3410  140.7720  149.9210 C   0  0  0  0  0  1  0  0  0  0  0  0
  139.0810  139.4480  150.3650 O   0  0  0  0  0  0  0  0  0  0  0  0
  139.2130  139.6370  153.0290 O   0  0  0  0  0  0  0  0  0  0  0  0
  138.3780  139.7900  152.6310 H   0  0  0  0  0  0  0  0  0  0  0  0
  145.0930  139.9900  149.3960 C   0  0  0  0  0  0  0  0  0  0  0  0
  143.9840  140.5100  149.2980 O   0  0  0  0  0  0  0  0  0  0  0  0
  146.3380  140.7640  148.9990 C   0  0  0  0  0  2  0  0  0  0  0  0
  146.4050  142.1080  149.7090 C   0  0  0  0  0  2  0  0  0  0  0  0
  146.9920  142.0110  151.0930 C   0  0  0  0  0  0  0  0  0  0  0  0
  148.3720  142.1120  151.2850 C   0  0  0  0  0  3  0  0  0  0  0  0
  148.9180  141.9860  152.5630 C   0  0  0  0  0  3  0  0  0  0  0  0
  148.0890  141.7670  153.6700 C   0  0  0  0  0  0  0  0  0  0  0  0
  146.7040  141.6760  153.5050 C   0  0  0  0  0  0  0  0  0  0  0  0
  146.1700  141.8040  152.2110 C   0  0  0  0  0  3  0  0  0  0  0  0
  148.6760  141.6450  154.8980 O   0  0  0  0  0  0  0  0  0  0  0  0
  149.5160  142.0270  155.0570 H   0  0  0  0  0  0  0  0  0  0  0  0
  145.7450  141.4610  154.4580 O   0  0  0  0  0  0  0  0  0  0  0  0
  145.1100  140.1890  154.5010 C   0  0  0  0  0  1  0  0  0  0  0  0
  146.7150  138.4760  150.4950 C   0  0  0  0  0  2  0  0  0  0  0  0
  146.9080  137.9870  151.9170 C   0  0  0  0  0  0  0  0  0  0  0  0
  145.9300  137.1550  152.4860 C   0  0  0  0  0  3  0  0  0  0  0  0
  146.0550  136.6900  153.7960 C   0  0  0  0  0  3  0  0  0  0  0  0
  147.1700  137.0380  154.5540 C   0  0  0  0  0  3  0  0  0  0  0  0
  148.1600  137.8410  153.9960 C   0  0  0  0  0  3  0  0  0  0  0  0
  148.0370  138.3050  152.6840 C   0  0  0  0  0  3  0  0  0  0  0  0
  1 30  1  6  0  0  0
  2  4  1  0  0  0  0
  2  1  1  0  0  0  0
  3  2  2  0  0  0  0
  4  5  1  0  0  0  0
  5  8  1  0  0  0  0
  6 11  1  0  0  0  0
  7  6  2  0  0  0  0
  7  8  1  0  0  0  0
  8  9  2  0  0  0  0
  9 10  1  0  0  0  0
 11 14  1  0  0  0  0
 11 10  2  0  0  0  0
 12 13  1  0  0  0  0
 13  6  1  0  0  0  0
 15 14  1  0  0  0  0
 16  1  1  0  0  0  0
 17 16  2  0  0  0  0
 18 16  1  0  0  0  0
 18 19  1  0  0  0  0
 19 20  1  0  0  0  0
 20 21  2  0  0  0  0
 20 25  1  0  0  0  0
 21 22  1  0  0  0  0
 22 23  2  0  0  0  0
 23 26  1  0  0  0  0
 24 23  1  0  0  0  0
 24 28  1  0  0  0  0
 25 24  2  0  0  0  0
 26 27  1  0  0  0  0
 28 29  1  0  0  0  0
 30 31  1  0  0  0  0
 31 32  2  0  0  0  0
 31 36  1  0  0  0  0
 32 33  1  0  0  0  0
 33 34  2  0  0  0  0
 35 34  1  0  0  0  0
 36 35  2  0  0  0  0
M  END
>  <MODEL>
1

>  <REMARK>
 VINA RESULT:    -7.591      0.000      0.000
 INTER + INTRA:         -17.684
 INTER:                 -14.020
 INTRA:                  -3.664
 UNBOUND:                -4.324
  Name = CHEMBL4172855
  16 active torsions:
  status: ('A' for Active; 'I' for Inactive)
    1  A    between atoms: C_1  and  O_2
    2  A    between atoms: O_2  and  C_3
    3  A    between atoms: C_5  and  C_6
    4  A    between atoms: C_6  and  C_7
    5  A    between atoms: C_7  and  C_8
    6  A    between atoms: C_8  and  C_10
    7  A    between atoms: C_10  and  C_11
    8  A    between atoms: C_10  and  C_18
    9  A    between atoms: C_11  and  C_12
   10  A    between atoms: C_18  and  C_20
   11  A    between atoms: C_20  and  C_21
   12  A    between atoms: C_21  and  C_22
   13  A    between atoms: C_25  and  O_26
   14  A    between atoms: C_27  and  O_28
   15  A    between atoms: O_28  and  C_29
   16  A    between atoms: C_33  and  O_34
                            x       y       z     vdW  Elec       q    Type
                         _______ _______ _______ _____ _____    ______ ____

>  <TORSDO>
F 14

>  <SCORE>
-7.591

>  <RMSD_LB>
0.000

>  <RMSD_UB>
0.000

$$$$
CHEMBL4172855
 OpenBabel10172500393D

 36 38  0  0  1  0  0  0  0  0999 V2000
  144.5020  138.5490  150.0550 C   0  0  2  0  0  3  0  0  0  0  0  0
  143.8090  137.5940  149.0860 C   0  0  0  0  0  0  0  0  0  0  0  0
  144.3060  137.2470  148.0150 O   0  0  0  0  0  0  0  0  0  0  0  0
  142.4680  137.0240  149.5060 C   0  0  0  0  0  2  0  0  0  0  0  0
  142.4450  136.7550  151.0090 C   0  0  0  0  0  2  0  0  0  0  0  0
  140.6870  138.6540  153.8240 C   0  0  0  0  0  0  0  0  0  0  0  0
  141.5890  137.8360  153.1330 C   0  0  0  0  0  3  0  0  0  0  0  0
  141.4470  137.6090  151.7510 C   0  0  0  0  0  0  0  0  0  0  0  0
  140.3940  138.2240  151.0630 C   0  0  0  0  0  3  0  0  0  0  0  0
  139.4870  139.0370  151.7430 C   0  0  0  0  0  3  0  0  0  0  0  0
  139.6360  139.2460  153.1130 C   0  0  0  0  0  0  0  0  0  0  0  0
  140.4680  137.8720  156.0700 C   0  0  0  0  0  1  0  0  0  0  0  0
  140.7380  138.9320  155.1640 O   0  0  0  0  0  0  0  0  0  0  0  0
  138.7450  140.0490  153.7750 O   0  0  0  0  0  0  0  0  0  0  0  0
  137.9340  139.6930  154.0840 H   0  0  0  0  0  0  0  0  0  0  0  0
  144.4020  139.9900  149.5800 C   0  0  0  0  0  0  0  0  0  0  0  0
  143.3140  140.5250  149.3800 O   0  0  0  0  0  0  0  0  0  0  0  0
  145.6860  140.7860  149.4260 C   0  0  0  0  0  2  0  0  0  0  0  0
  145.7110  141.9830  150.3660 C   0  0  0  0  0  2  0  0  0  0  0  0
  146.5030  141.7260  151.6210 C   0  0  0  0  0  0  0  0  0  0  0  0
  147.8590  142.0570  151.6830 C   0  0  0  0  0  3  0  0  0  0  0  0
  148.6000  141.7850  152.8340 C   0  0  0  0  0  3  0  0  0  0  0  0
  147.9920  141.1860  153.9440 C   0  0  0  0  0  0  0  0  0  0  0  0
  146.6330  140.8570  153.9100 C   0  0  0  0  0  0  0  0  0  0  0  0
  145.9020  141.1380  152.7440 C   0  0  0  0  0  3  0  0  0  0  0  0
  148.7640  140.9360  155.0440 O   0  0  0  0  0  0  0  0  0  0  0  0
  149.6960  141.0150  154.9900 H   0  0  0  0  0  0  0  0  0  0  0  0
  145.8750  140.2680  154.8860 O   0  0  0  0  0  0  0  0  0  0  0  0
  144.5250  139.9380  154.5840 C   0  0  0  0  0  1  0  0  0  0  0  0
  145.9930  138.2200  150.2630 C   0  0  0  0  0  2  0  0  0  0  0  0
  146.4190  137.7700  151.6460 C   0  0  0  0  0  0  0  0  0  0  0  0
  147.7450  137.9910  152.0520 C   0  0  0  0  0  3  0  0  0  0  0  0
  148.1900  137.5830  153.3110 C   0  0  0  0  0  3  0  0  0  0  0  0
  147.3090  136.9600  154.1910 C   0  0  0  0  0  3  0  0  0  0  0  0
  145.9850  136.7560  153.8140 C   0  0  0  0  0  3  0  0  0  0  0  0
  145.5390  137.1670  152.5550 C   0  0  0  0  0  3  0  0  0  0  0  0
  1 30  1  6  0  0  0
  2  4  1  0  0  0  0
  2  1  1  0  0  0  0
  3  2  2  0  0  0  0
  4  5  1  0  0  0  0
  5  8  1  0  0  0  0
  6 13  1  0  0  0  0
  7  6  1  0  0  0  0
  8  7  2  0  0  0  0
  9 10  2  0  0  0  0
  9  8  1  0  0  0  0
 10 11  1  0  0  0  0
 11 14  1  0  0  0  0
 11  6  2  0  0  0  0
 13 12  1  0  0  0  0
 14 15  1  0  0  0  0
 16  1  1  0  0  0  0
 17 16  2  0  0  0  0
 18 16  1  0  0  0  0
 18 19  1  0  0  0  0
 19 20  1  0  0  0  0
 20 21  2  0  0  0  0
 20 25  1  0  0  0  0
 21 22  1  0  0  0  0
 22 23  2  0  0  0  0
 23 26  1  0  0  0  0
 24 23  1  0  0  0  0
 24 28  1  0  0  0  0
 25 24  2  0  0  0  0
 27 26  1  0  0  0  0
 29 28  1  0  0  0  0
 30 31  1  0  0  0  0
 31 32  2  0  0  0  0
 31 36  1  0  0  0  0
 32 33  1  0  0  0  0
 33 34  2  0  0  0  0
 35 34  1  0  0  0  0
 36 35  2  0  0  0  0
M  END
>  <MODEL>
2

>  <REMARK>
 VINA RESULT:    -7.535      1.073      2.047
 INTER + INTRA:         -17.586
 INTER:                 -13.611
 INTRA:                  -3.975
 UNBOUND:                -4.324
  Name = CHEMBL4172855
  16 active torsions:
  status: ('A' for Active; 'I' for Inactive)
    1  A    between atoms: C_1  and  O_2
    2  A    between atoms: O_2  and  C_3
    3  A    between atoms: C_5  and  C_6
    4  A    between atoms: C_6  and  C_7
    5  A    between atoms: C_7  and  C_8
    6  A    between atoms: C_8  and  C_10
    7  A    between atoms: C_10  and  C_11
    8  A    between atoms: C_10  and  C_18
    9  A    between atoms: C_11  and  C_12
   10  A    between atoms: C_18  and  C_20
   11  A    between atoms: C_20  and  C_21
   12  A    between atoms: C_21  and  C_22
   13  A    between atoms: C_25  and  O_26
   14  A    between atoms: C_27  and  O_28
   15  A    between atoms: O_28  and  C_29
   16  A    between atoms: C_33  and  O_34
                            x       y       z     vdW  Elec       q    Type
                         _______ _______ _______ _____ _____    ______ ____

>  <TORSDO>
F 14

>  <SCORE>
-7.535

>  <RMSD_LB>
1.073

>  <RMSD_UB>
2.047

$$$$
CHEMBL4172855
 OpenBabel10172500393D

 36 38  0  0  1  0  0  0  0  0999 V2000
  146.3180  140.5820  148.6900 C   0  0  2  0  0  3  0  0  0  0  0  0
  146.5020  140.7020  147.1800 C   0  0  0  0  0  0  0  0  0  0  0  0
  146.6400  141.7810  146.6040 O   0  0  0  0  0  0  0  0  0  0  0  0
  146.5630  139.4150  146.3790 C   0  0  0  0  0  2  0  0  0  0  0  0
  147.6910  138.5190  146.8840 C   0  0  0  0  0  2  0  0  0  0  0  0
  149.9020  139.0470  143.8090 C   0  0  0  0  0  0  0  0  0  0  0  0
  148.8160  139.1030  144.6910 C   0  0  0  0  0  3  0  0  0  0  0  0
  148.8510  138.4240  145.9240 C   0  0  0  0  0  0  0  0  0  0  0  0
  149.9950  137.6960  146.2700 C   0  0  0  0  0  3  0  0  0  0  0  0
  151.0810  137.6300  145.3960 C   0  0  0  0  0  3  0  0  0  0  0  0
  151.0290  138.3010  144.1760 C   0  0  0  0  0  0  0  0  0  0  0  0
  149.4490  138.9680  141.4660 C   0  0  0  0  0  1  0  0  0  0  0  0
  149.9630  139.6680  142.5890 O   0  0  0  0  0  0  0  0  0  0  0  0
  152.0990  138.2370  143.3230 O   0  0  0  0  0  0  0  0  0  0  0  0
  152.1050  137.6100  142.6260 H   0  0  0  0  0  0  0  0  0  0  0  0
  145.0240  139.8610  149.0350 C   0  0  0  0  0  0  0  0  0  0  0  0
  143.9280  140.3440  148.7610 O   0  0  0  0  0  0  0  0  0  0  0  0
  145.1160  138.4820  149.6660 C   0  0  0  0  0  2  0  0  0  0  0  0
  146.4540  138.2800  150.3630 C   0  0  0  0  0  2  0  0  0  0  0  0
  146.3610  138.4140  151.8610 C   0  0  0  0  0  0  0  0  0  0  0  0
  145.1400  138.7150  152.4700 C   0  0  0  0  0  3  0  0  0  0  0  0
  145.0630  138.8760  153.8540 C   0  0  0  0  0  3  0  0  0  0  0  0
  146.2060  138.7270  154.6500 C   0  0  0  0  0  0  0  0  0  0  0  0
  147.4360  138.4130  154.0640 C   0  0  0  0  0  0  0  0  0  0  0  0
  147.4970  138.2560  152.6690 C   0  0  0  0  0  3  0  0  0  0  0  0
  146.0760  138.9010  156.0000 O   0  0  0  0  0  0  0  0  0  0  0  0
  146.4840  138.3000  156.5910 H   0  0  0  0  0  0  0  0  0  0  0  0
  148.6490  138.2370  154.6740 O   0  0  0  0  0  0  0  0  0  0  0  0
  149.6150  137.4170  154.0280 C   0  0  0  0  0  1  0  0  0  0  0  0
  146.3070  141.9460  149.4070 C   0  0  0  0  0  2  0  0  0  0  0  0
  146.7360  141.9700  150.8610 C   0  0  0  0  0  0  0  0  0  0  0  0
  148.0860  141.7400  151.1710 C   0  0  0  0  0  3  0  0  0  0  0  0
  148.5290  141.7390  152.4960 C   0  0  0  0  0  3  0  0  0  0  0  0
  147.6290  141.9830  153.5290 C   0  0  0  0  0  3  0  0  0  0  0  0
  146.2930  142.2380  153.2370 C   0  0  0  0  0  3  0  0  0  0  0  0
  145.8500  142.2410  151.9120 C   0  0  0  0  0  3  0  0  0  0  0  0
  1 16  1  0  0  0  0
  1 30  1  1  0  0  0
  2  1  1  0  0  0  0
  3  2  2  0  0  0  0
  4  5  1  0  0  0  0
  4  2  1  0  0  0  0
  6 11  2  0  0  0  0
  6  7  1  0  0  0  0
  7  8  2  0  0  0  0
  8  9  1  0  0  0  0
  8  5  1  0  0  0  0
 10  9  2  0  0  0  0
 11 10  1  0  0  0  0
 12 13  1  0  0  0  0
 13  6  1  0  0  0  0
 14 11  1  0  0  0  0
 15 14  1  0  0  0  0
 16 18  1  0  0  0  0
 17 16  2  0  0  0  0
 18 19  1  0  0  0  0
 19 20  1  0  0  0  0
 20 21  2  0  0  0  0
 20 25  1  0  0  0  0
 21 22  1  0  0  0  0
 22 23  2  0  0  0  0
 23 26  1  0  0  0  0
 24 23  1  0  0  0  0
 24 28  1  0  0  0  0
 25 24  2  0  0  0  0
 26 27  1  0  0  0  0
 29 28  1  0  0  0  0
 30 31  1  0  0  0  0
 31 32  2  0  0  0  0
 31 36  1  0  0  0  0
 32 33  1  0  0  0  0
 33 34  2  0  0  0  0
 35 34  1  0  0  0  0
 36 35  2  0  0  0  0
M  END
>  <MODEL>
3

>  <REMARK>
 VINA RESULT:    -7.501      3.774      7.346
 INTER + INTRA:         -17.526
 INTER:                 -13.806
 INTRA:                  -3.720
 UNBOUND:                -4.324
  Name = CHEMBL4172855
  16 active torsions:
  status: ('A' for Active; 'I' for Inactive)
    1  A    between atoms: C_1  and  O_2
    2  A    between atoms: O_2  and  C_3
    3  A    between atoms: C_5  and  C_6
    4  A    between atoms: C_6  and  C_7
    5  A    between atoms: C_7  and  C_8
    6  A    between atoms: C_8  and  C_10
    7  A    between atoms: C_10  and  C_11
    8  A    between atoms: C_10  and  C_18
    9  A    between atoms: C_11  and  C_12
   10  A    between atoms: C_18  and  C_20
   11  A    between atoms: C_20  and  C_21
   12  A    between atoms: C_21  and  C_22
   13  A    between atoms: C_25  and  O_26
   14  A    between atoms: C_27  and  O_28
   15  A    between atoms: O_28  and  C_29
   16  A    between atoms: C_33  and  O_34
                            x       y       z     vdW  Elec       q    Type
                         _______ _______ _______ _____ _____    ______ ____

>  <TORSDO>
F 14

>  <SCORE>
-7.501

>  <RMSD_LB>
3.774

>  <RMSD_UB>
7.346

$$$$
CHEMBL4172855
 OpenBabel10172500393D

 36 38  0  0  1  0  0  0  0  0999 V2000
  145.1650  138.5010  150.2620 C   0  0  2  0  0  3  0  0  0  0  0  0
  144.8050  139.8280  149.6010 C   0  0  0  0  0  0  0  0  0  0  0  0
  143.6650  140.2960  149.6110 O   0  0  0  0  0  0  0  0  0  0  0  0
  145.9270  140.6130  148.9490 C   0  0  0  0  0  2  0  0  0  0  0  0
  146.0410  142.0040  149.5670 C   0  0  0  0  0  2  0  0  0  0  0  0
  148.3090  141.8760  152.6430 C   0  0  0  0  0  0  0  0  0  0  0  0
  147.8700  141.8640  151.3140 C   0  0  0  0  0  3  0  0  0  0  0  0
  146.5020  141.9810  151.0040 C   0  0  0  0  0  0  0  0  0  0  0  0
  145.5760  142.1230  152.0440 C   0  0  0  0  0  3  0  0  0  0  0  0
  146.0030  142.1310  153.3720 C   0  0  0  0  0  3  0  0  0  0  0  0
  147.3600  142.0060  153.6640 C   0  0  0  0  0  0  0  0  0  0  0  0
  150.4860  142.8510  152.7650 C   0  0  0  0  0  1  0  0  0  0  0  0
  149.6140  141.7650  153.0460 O   0  0  0  0  0  0  0  0  0  0  0  0
  147.7750  142.0190  154.9700 O   0  0  0  0  0  0  0  0  0  0  0  0
  147.7610  142.8190  155.4580 H   0  0  0  0  0  0  0  0  0  0  0  0
  144.4720  137.3340  149.5770 C   0  0  0  0  0  0  0  0  0  0  0  0
  144.7780  136.9840  148.4390 O   0  0  0  0  0  0  0  0  0  0  0  0
  143.4320  136.5540  150.3630 C   0  0  0  0  0  2  0  0  0  0  0  0
  142.0240  136.8560  149.8690 C   0  0  0  0  0  2  0  0  0  0  0  0
  141.2280  137.6910  150.8380 C   0  0  0  0  0  0  0  0  0  0  0  0
  141.2610  137.4100  152.2060 C   0  0  0  0  0  3  0  0  0  0  0  0
  140.4950  138.1620  153.0990 C   0  0  0  0  0  3  0  0  0  0  0  0
  139.6940  139.2120  152.6360 C   0  0  0  0  0  0  0  0  0  0  0  0
  139.6550  139.5200  151.2720 C   0  0  0  0  0  0  0  0  0  0  0  0
  140.4310  138.7540  150.3870 C   0  0  0  0  0  3  0  0  0  0  0  0
  138.9590  139.9130  153.5520 O   0  0  0  0  0  0  0  0  0  0  0  0
  138.6270  139.4830  154.3140 H   0  0  0  0  0  0  0  0  0  0  0  0
  138.9340  140.4970  150.6400 O   0  0  0  0  0  0  0  0  0  0  0  0
  138.5270  140.2720  149.2960 C   0  0  0  0  0  1  0  0  0  0  0  0
  144.8050  138.4540  151.7600 C   0  0  0  0  0  2  0  0  0  0  0  0
  145.9510  138.4060  152.7500 C   0  0  0  0  0  0  0  0  0  0  0  0
  147.2640  138.3090  152.2600 C   0  0  0  0  0  3  0  0  0  0  0  0
  148.3540  138.2490  153.1320 C   0  0  0  0  0  3  0  0  0  0  0  0
  148.1470  138.2980  154.5070 C   0  0  0  0  0  3  0  0  0  0  0  0
  146.8540  138.4200  155.0070 C   0  0  0  0  0  3  0  0  0  0  0  0
  145.7640  138.4830  154.1360 C   0  0  0  0  0  3  0  0  0  0  0  0
  1 30  1  1  0  0  0
  2  3  2  0  0  0  0
  2  1  1  0  0  0  0
  4  5  1  0  0  0  0
  4  2  1  0  0  0  0
  5  8  1  0  0  0  0
  6 13  1  0  0  0  0
  6 11  1  0  0  0  0
  7  6  2  0  0  0  0
  8  7  1  0  0  0  0
  8  9  2  0  0  0  0
  9 10  1  0  0  0  0
 10 11  2  0  0  0  0
 11 14  1  0  0  0  0
 12 13  1  0  0  0  0
 14 15  1  0  0  0  0
 16  1  1  0  0  0  0
 16 18  1  0  0  0  0
 17 16  2  0  0  0  0
 19 18  1  0  0  0  0
 19 20  1  0  0  0  0
 20 21  1  0  0  0  0
 21 22  2  0  0  0  0
 23 22  1  0  0  0  0
 23 26  1  0  0  0  0
 24 23  2  0  0  0  0
 25 20  2  0  0  0  0
 25 24  1  0  0  0  0
 26 27  1  0  0  0  0
 28 24  1  0  0  0  0
 29 28  1  0  0  0  0
 30 31  1  0  0  0  0
 31 36  1  0  0  0  0
 32 31  2  0  0  0  0
 32 33  1  0  0  0  0
 33 34  2  0  0  0  0
 34 35  1  0  0  0  0
 36 35  2  0  0  0  0
M  END
>  <MODEL>
4

>  <REMARK>
 VINA RESULT:    -7.465      0.989      6.635
 INTER + INTRA:         -17.462
 INTER:                 -13.374
 INTRA:                  -4.089
 UNBOUND:                -4.324
  Name = CHEMBL4172855
  16 active torsions:
  status: ('A' for Active; 'I' for Inactive)
    1  A    between atoms: C_1  and  O_2
    2  A    between atoms: O_2  and  C_3
    3  A    between atoms: C_5  and  C_6
    4  A    between atoms: C_6  and  C_7
    5  A    between atoms: C_7  and  C_8
    6  A    between atoms: C_8  and  C_10
    7  A    between atoms: C_10  and  C_11
    8  A    between atoms: C_10  and  C_18
    9  A    between atoms: C_11  and  C_12
   10  A    between atoms: C_18  and  C_20
   11  A    between atoms: C_20  and  C_21
   12  A    between atoms: C_21  and  C_22
   13  A    between atoms: C_25  and  O_26
   14  A    between atoms: C_27  and  O_28
   15  A    between atoms: O_28  and  C_29
   16  A    between atoms: C_33  and  O_34
                            x       y       z     vdW  Elec       q    Type
                         _______ _______ _______ _____ _____    ______ ____

>  <TORSDO>
F 14

>  <SCORE>
-7.465

>  <RMSD_LB>
0.989

>  <RMSD_UB>
6.635

$$$$
CHEMBL4172855
 OpenBabel10172500393D

 36 38  0  0  1  0  0  0  0  0999 V2000
  146.3730  140.6320  148.8030 C   0  0  2  0  0  3  0  0  0  0  0  0
  146.4210  140.8320  147.2910 C   0  0  0  0  0  0  0  0  0  0  0  0
  146.5670  141.9350  146.7630 O   0  0  0  0  0  0  0  0  0  0  0  0
  146.3310  139.5940  146.4190 C   0  0  0  0  0  2  0  0  0  0  0  0
  147.6350  138.8020  146.4720 C   0  0  0  0  0  2  0  0  0  0  0  0
  146.0300  135.5070  147.5630 C   0  0  0  0  0  0  0  0  0  0  0  0
  146.1930  136.8090  147.0760 C   0  0  0  0  0  3  0  0  0  0  0  0
  147.4640  137.4110  147.0320 C   0  0  0  0  0  0  0  0  0  0  0  0
  148.5780  136.6870  147.4730 C   0  0  0  0  0  3  0  0  0  0  0  0
  148.4270  135.3900  147.9650 C   0  0  0  0  0  3  0  0  0  0  0  0
  147.1600  134.8100  148.0080 C   0  0  0  0  0  0  0  0  0  0  0  0
  143.8140  135.4120  148.4470 C   0  0  0  0  0  1  0  0  0  0  0  0
  144.8380  134.8370  147.6490 O   0  0  0  0  0  0  0  0  0  0  0  0
  147.0170  133.5340  148.4890 O   0  0  0  0  0  0  0  0  0  0  0  0
  147.5020  132.8310  148.1020 H   0  0  0  0  0  0  0  0  0  0  0  0
  145.1460  139.8350  149.2170 C   0  0  0  0  0  0  0  0  0  0  0  0
  144.0290  140.1030  148.7800 O   0  0  0  0  0  0  0  0  0  0  0  0
  145.3400  138.6420  150.1360 C   0  0  0  0  0  2  0  0  0  0  0  0
  144.3570  138.6710  151.2980 C   0  0  0  0  0  2  0  0  0  0  0  0
  145.0380  138.6930  152.6420 C   0  0  0  0  0  0  0  0  0  0  0  0
  144.3970  139.2510  153.7500 C   0  0  0  0  0  3  0  0  0  0  0  0
  145.0430  139.3040  154.9860 C   0  0  0  0  0  3  0  0  0  0  0  0
  146.3360  138.7890  155.1330 C   0  0  0  0  0  0  0  0  0  0  0  0
  146.9930  138.2130  154.0410 C   0  0  0  0  0  0  0  0  0  0  0  0
  146.3290  138.1690  152.8030 C   0  0  0  0  0  3  0  0  0  0  0  0
  146.9250  138.8710  156.3640 O   0  0  0  0  0  0  0  0  0  0  0  0
  147.7860  139.2300  156.4490 H   0  0  0  0  0  0  0  0  0  0  0  0
  148.2480  137.6690  153.9920 O   0  0  0  0  0  0  0  0  0  0  0  0
  148.9000  137.5910  152.7300 C   0  0  0  0  0  1  0  0  0  0  0  0
  146.3640  141.9590  149.5870 C   0  0  0  0  0  2  0  0  0  0  0  0
  146.8380  141.9180  151.0260 C   0  0  0  0  0  0  0  0  0  0  0  0
  145.9450  142.2910  152.0440 C   0  0  0  0  0  3  0  0  0  0  0  0
  146.3380  142.2830  153.3830 C   0  0  0  0  0  3  0  0  0  0  0  0
  147.6280  141.8890  153.7270 C   0  0  0  0  0  3  0  0  0  0  0  0
  148.5180  141.4940  152.7320 C   0  0  0  0  0  3  0  0  0  0  0  0
  148.1240  141.4980  151.3920 C   0  0  0  0  0  3  0  0  0  0  0  0
  1 16  1  0  0  0  0
  1 30  1  1  0  0  0
  2  1  1  0  0  0  0
  3  2  2  0  0  0  0
  4  5  1  0  0  0  0
  4  2  1  0  0  0  0
  5  8  1  0  0  0  0
  6 13  1  0  0  0  0
  6 11  1  0  0  0  0
  7  6  2  0  0  0  0
  8  7  1  0  0  0  0
  8  9  2  0  0  0  0
  9 10  1  0  0  0  0
 10 11  2  0  0  0  0
 11 14  1  0  0  0  0
 13 12  1  0  0  0  0
 15 14  1  0  0  0  0
 16 18  1  0  0  0  0
 17 16  2  0  0  0  0
 18 19  1  0  0  0  0
 19 20  1  0  0  0  0
 20 25  2  0  0  0  0
 20 21  1  0  0  0  0
 21 22  2  0  0  0  0
 22 23  1  0  0  0  0
 23 26  1  0  0  0  0
 24 23  2  0  0  0  0
 25 24  1  0  0  0  0
 26 27  1  0  0  0  0
 28 24  1  0  0  0  0
 29 28  1  0  0  0  0
 30 31  1  0  0  0  0
 31 36  2  0  0  0  0
 31 32  1  0  0  0  0
 32 33  2  0  0  0  0
 33 34  1  0  0  0  0
 35 34  2  0  0  0  0
 36 35  1  0  0  0  0
M  END
>  <MODEL>
5

>  <REMARK>
 VINA RESULT:    -7.442      2.623      5.590
 INTER + INTRA:         -17.422
 INTER:                 -13.462
 INTRA:                  -3.960
 UNBOUND:                -4.324
  Name = CHEMBL4172855
  16 active torsions:
  status: ('A' for Active; 'I' for Inactive)
    1  A    between atoms: C_1  and  O_2
    2  A    between atoms: O_2  and  C_3
    3  A    between atoms: C_5  and  C_6
    4  A    between atoms: C_6  and  C_7
    5  A    between atoms: C_7  and  C_8
    6  A    between atoms: C_8  and  C_10
    7  A    between atoms: C_10  and  C_11
    8  A    between atoms: C_10  and  C_18
    9  A    between atoms: C_11  and  C_12
   10  A    between atoms: C_18  and  C_20
   11  A    between atoms: C_20  and  C_21
   12  A    between atoms: C_21  and  C_22
   13  A    between atoms: C_25  and  O_26
   14  A    between atoms: C_27  and  O_28
   15  A    between atoms: O_28  and  C_29
   16  A    between atoms: C_33  and  O_34
                            x       y       z     vdW  Elec       q    Type
                         _______ _______ _______ _____ _____    ______ ____

>  <TORSDO>
F 14

>  <SCORE>
-7.442

>  <RMSD_LB>
2.623

>  <RMSD_UB>
5.590

$$$$
CHEMBL4172855
 OpenBabel10172500393D

 36 38  0  0  1  0  0  0  0  0999 V2000
  143.8680  137.8370  150.2410 C   0  0  2  0  0  3  0  0  0  0  0  0
  143.7170  138.9810  149.2420 C   0  0  0  0  0  0  0  0  0  0  0  0
  143.6370  138.8050  148.0260 O   0  0  0  0  0  0  0  0  0  0  0  0
  143.6180  140.3880  149.7990 C   0  0  0  0  0  2  0  0  0  0  0  0
  144.2430  140.4610  151.1900 C   0  0  0  0  0  2  0  0  0  0  0  0
  147.8180  141.3600  152.2060 C   0  0  0  0  0  0  0  0  0  0  0  0
  146.5360  140.7990  152.2120 C   0  0  0  0  0  3  0  0  0  0  0  0
  145.6110  141.0990  151.1950 C   0  0  0  0  0  0  0  0  0  0  0  0
  145.9900  141.9630  150.1610 C   0  0  0  0  0  3  0  0  0  0  0  0
  147.2630  142.5330  150.1490 C   0  0  0  0  0  3  0  0  0  0  0  0
  148.1660  142.2310  151.1670 C   0  0  0  0  0  0  0  0  0  0  0  0
  148.6260  141.7470  154.4200 C   0  0  0  0  0  1  0  0  0  0  0  0
  148.7860  141.1330  153.1500 O   0  0  0  0  0  0  0  0  0  0  0  0
  149.4170  142.7900  151.1480 O   0  0  0  0  0  0  0  0  0  0  0  0
  149.6250  143.4510  150.5170 H   0  0  0  0  0  0  0  0  0  0  0  0
  145.0200  136.9200  149.8620 C   0  0  0  0  0  0  0  0  0  0  0  0
  144.8280  135.8570  149.2740 O   0  0  0  0  0  0  0  0  0  0  0  0
  146.4360  137.3810  150.1640 C   0  0  0  0  0  2  0  0  0  0  0  0
  147.0900  136.5050  151.2230 C   0  0  0  0  0  2  0  0  0  0  0  0
  147.1280  137.1570  152.5810 C   0  0  0  0  0  0  0  0  0  0  0  0
  148.3470  137.3650  153.2320 C   0  0  0  0  0  3  0  0  0  0  0  0
  148.3780  137.9360  154.5050 C   0  0  0  0  0  3  0  0  0  0  0  0
  147.1910  138.3170  155.1410 C   0  0  0  0  0  0  0  0  0  0  0  0
  145.9600  138.1310  154.5040 C   0  0  0  0  0  0  0  0  0  0  0  0
  145.9450  137.5540  153.2230 C   0  0  0  0  0  3  0  0  0  0  0  0
  147.2770  138.8660  156.3890 O   0  0  0  0  0  0  0  0  0  0  0  0
  146.7880  139.6370  156.5970 H   0  0  0  0  0  0  0  0  0  0  0  0
  144.7070  138.4320  154.9660 O   0  0  0  0  0  0  0  0  0  0  0  0
  144.2690  139.7830  154.8940 C   0  0  0  0  0  1  0  0  0  0  0  0
  142.5970  136.9750  150.3680 C   0  0  0  0  0  2  0  0  0  0  0  0
  141.5860  137.3800  151.4220 C   0  0  0  0  0  0  0  0  0  0  0  0
  142.0480  137.7520  152.6960 C   0  0  0  0  0  3  0  0  0  0  0  0
  141.1560  138.1200  153.7050 C   0  0  0  0  0  3  0  0  0  0  0  0
  139.7880  138.1360  153.4510 C   0  0  0  0  0  3  0  0  0  0  0  0
  139.3160  137.7940  152.1880 C   0  0  0  0  0  3  0  0  0  0  0  0
  140.2080  137.4280  151.1760 C   0  0  0  0  0  3  0  0  0  0  0  0
  1 30  1  6  0  0  0
  2  4  1  0  0  0  0
  2  1  1  0  0  0  0
  3  2  2  0  0  0  0
  4  5  1  0  0  0  0
  5  8  1  0  0  0  0
  6  7  1  0  0  0  0
  6 13  1  0  0  0  0
  8  7  2  0  0  0  0
  9  8  1  0  0  0  0
 10  9  2  0  0  0  0
 10 11  1  0  0  0  0
 11  6  2  0  0  0  0
 13 12  1  0  0  0  0
 14 11  1  0  0  0  0
 15 14  1  0  0  0  0
 16 18  1  0  0  0  0
 16  1  1  0  0  0  0
 17 16  2  0  0  0  0
 18 19  1  0  0  0  0
 19 20  1  0  0  0  0
 20 25  2  0  0  0  0
 20 21  1  0  0  0  0
 21 22  2  0  0  0  0
 22 23  1  0  0  0  0
 23 26  1  0  0  0  0
 24 28  1  0  0  0  0
 24 23  2  0  0  0  0
 25 24  1  0  0  0  0
 26 27  1  0  0  0  0
 29 28  1  0  0  0  0
 30 31  1  0  0  0  0
 31 32  1  0  0  0  0
 32 33  2  0  0  0  0
 34 33  1  0  0  0  0
 35 34  2  0  0  0  0
 36 31  2  0  0  0  0
 36 35  1  0  0  0  0
M  END
>  <MODEL>
6

>  <REMARK>
 VINA RESULT:    -7.248      1.976      5.958
 INTER + INTRA:         -17.080
 INTER:                 -13.351
 INTRA:                  -3.729
 UNBOUND:                -4.324
  Name = CHEMBL4172855
  16 active torsions:
  status: ('A' for Active; 'I' for Inactive)
    1  A    between atoms: C_1  and  O_2
    2  A    between atoms: O_2  and  C_3
    3  A    between atoms: C_5  and  C_6
    4  A    between atoms: C_6  and  C_7
    5  A    between atoms: C_7  and  C_8
    6  A    between atoms: C_8  and  C_10
    7  A    between atoms: C_10  and  C_11
    8  A    between atoms: C_10  and  C_18
    9  A    between atoms: C_11  and  C_12
   10  A    between atoms: C_18  and  C_20
   11  A    between atoms: C_20  and  C_21
   12  A    between atoms: C_21  and  C_22
   13  A    between atoms: C_25  and  O_26
   14  A    between atoms: C_27  and  O_28
   15  A    between atoms: O_28  and  C_29
   16  A    between atoms: C_33  and  O_34
                            x       y       z     vdW  Elec       q    Type
                         _______ _______ _______ _____ _____    ______ ____

>  <TORSDO>
F 14

>  <SCORE>
-7.248

>  <RMSD_LB>
1.976

>  <RMSD_UB>
5.958

$$$$
CHEMBL4172855
 OpenBabel10172500393D

 36 38  0  0  1  0  0  0  0  0999 V2000
  145.1260  139.8980  150.0790 C   0  0  2  0  0  3  0  0  0  0  0  0
  146.1270  139.1470  149.2060 C   0  0  0  0  0  0  0  0  0  0  0  0
  146.4510  139.5250  148.0790 O   0  0  0  0  0  0  0  0  0  0  0  0
  146.7760  137.9080  149.7920 C   0  0  0  0  0  2  0  0  0  0  0  0
  145.9450  137.3650  150.9520 C   0  0  0  0  0  2  0  0  0  0  0  0
  146.0660  138.6950  154.5350 C   0  0  0  0  0  0  0  0  0  0  0  0
  145.5980  138.3350  153.2650 C   0  0  0  0  0  3  0  0  0  0  0  0
  146.4660  137.7830  152.3050 C   0  0  0  0  0  0  0  0  0  0  0  0
  147.8110  137.5830  152.6350 C   0  0  0  0  0  3  0  0  0  0  0  0
  148.2890  137.9440  153.8960 C   0  0  0  0  0  3  0  0  0  0  0  0
  147.4190  138.4960  154.8340 C   0  0  0  0  0  0  0  0  0  0  0  0
  143.9790  139.6390  155.2110 C   0  0  0  0  0  1  0  0  0  0  0  0
  145.3030  139.2410  155.5340 O   0  0  0  0  0  0  0  0  0  0  0  0
  147.8920  138.8440  156.0720 O   0  0  0  0  0  0  0  0  0  0  0  0
  147.5440  139.5950  156.5130 H   0  0  0  0  0  0  0  0  0  0  0  0
  143.7560  139.9610  149.4220 C   0  0  0  0  0  0  0  0  0  0  0  0
  143.6310  139.9840  148.1990 O   0  0  0  0  0  0  0  0  0  0  0  0
  142.5280  139.9190  150.3150 C   0  0  0  0  0  2  0  0  0  0  0  0
  142.4630  138.6210  151.1070 C   0  0  0  0  0  2  0  0  0  0  0  0
  141.1360  138.4170  151.7920 C   0  0  0  0  0  0  0  0  0  0  0  0
  141.0380  138.4970  153.1830 C   0  0  0  0  0  3  0  0  0  0  0  0
  139.8160  138.2720  153.8180 C   0  0  0  0  0  3  0  0  0  0  0  0
  138.6720  137.9740  153.0690 C   0  0  0  0  0  0  0  0  0  0  0  0
  138.7420  137.9020  151.6740 C   0  0  0  0  0  0  0  0  0  0  0  0
  139.9800  138.1300  151.0500 C   0  0  0  0  0  3  0  0  0  0  0  0
  137.5010  137.7580  153.7400 O   0  0  0  0  0  0  0  0  0  0  0  0
  137.3710  136.9580  154.2090 H   0  0  0  0  0  0  0  0  0  0  0  0
  137.7410  137.6200  150.7830 O   0  0  0  0  0  0  0  0  0  0  0  0
  138.0950  137.3620  149.4310 C   0  0  0  0  0  1  0  0  0  0  0  0
  145.5650  141.3400  150.3990 C   0  0  0  0  0  2  0  0  0  0  0  0
  146.4740  141.5400  151.5940 C   0  0  0  0  0  0  0  0  0  0  0  0
  147.8470  141.2830  151.4520 C   0  0  0  0  0  3  0  0  0  0  0  0
  148.7240  141.4400  152.5270 C   0  0  0  0  0  3  0  0  0  0  0  0
  148.2420  141.8710  153.7590 C   0  0  0  0  0  3  0  0  0  0  0  0
  146.8880  142.1540  153.9110 C   0  0  0  0  0  3  0  0  0  0  0  0
  146.0110  142.0000  152.8340 C   0  0  0  0  0  3  0  0  0  0  0  0
  1 30  1  6  0  0  0
  2  4  1  0  0  0  0
  2  1  1  0  0  0  0
  3  2  2  0  0  0  0
  4  5  1  0  0  0  0
  5  8  1  0  0  0  0
  6 11  1  0  0  0  0
  6 13  1  0  0  0  0
  7  6  2  0  0  0  0
  8  9  2  0  0  0  0
  8  7  1  0  0  0  0
  9 10  1  0  0  0  0
 10 11  2  0  0  0  0
 11 14  1  0  0  0  0
 12 13  1  0  0  0  0
 14 15  1  0  0  0  0
 16  1  1  0  0  0  0
 16 18  1  0  0  0  0
 17 16  2  0  0  0  0
 18 19  1  0  0  0  0
 19 20  1  0  0  0  0
 20 21  1  0  0  0  0
 21 22  2  0  0  0  0
 23 26  1  0  0  0  0
 23 22  1  0  0  0  0
 24 23  2  0  0  0  0
 25 24  1  0  0  0  0
 25 20  2  0  0  0  0
 26 27  1  0  0  0  0
 28 24  1  0  0  0  0
 29 28  1  0  0  0  0
 30 31  1  0  0  0  0
 31 36  1  0  0  0  0
 32 31  2  0  0  0  0
 32 33  1  0  0  0  0
 33 34  2  0  0  0  0
 34 35  1  0  0  0  0
 36 35  2  0  0  0  0
M  END
>  <MODEL>
7

>  <REMARK>
 VINA RESULT:    -7.118      1.635      6.501
 INTER + INTRA:         -16.851
 INTER:                 -13.322
 INTRA:                  -3.529
 UNBOUND:                -4.324
  Name = CHEMBL4172855
  16 active torsions:
  status: ('A' for Active; 'I' for Inactive)
    1  A    between atoms: C_1  and  O_2
    2  A    between atoms: O_2  and  C_3
    3  A    between atoms: C_5  and  C_6
    4  A    between atoms: C_6  and  C_7
    5  A    between atoms: C_7  and  C_8
    6  A    between atoms: C_8  and  C_10
    7  A    between atoms: C_10  and  C_11
    8  A    between atoms: C_10  and  C_18
    9  A    between atoms: C_11  and  C_12
   10  A    between atoms: C_18  and  C_20
   11  A    between atoms: C_20  and  C_21
   12  A    between atoms: C_21  and  C_22
   13  A    between atoms: C_25  and  O_26
   14  A    between atoms: C_27  and  O_28
   15  A    between atoms: O_28  and  C_29
   16  A    between atoms: C_33  and  O_34
                            x       y       z     vdW  Elec       q    Type
                         _______ _______ _______ _____ _____    ______ ____

>  <TORSDO>
F 14

>  <SCORE>
-7.118

>  <RMSD_LB>
1.635

>  <RMSD_UB>
6.501

$$$$
CHEMBL4172855
 OpenBabel10172500393D

 36 38  0  0  1  0  0  0  0  0999 V2000
  144.8330  137.7670  149.4900 C   0  0  2  0  0  3  0  0  0  0  0  0
  146.0980  136.9760  149.1650 C   0  0  0  0  0  0  0  0  0  0  0  0
  146.7590  137.1570  148.1420 O   0  0  0  0  0  0  0  0  0  0  0  0
  146.5680  135.9590  150.1880 C   0  0  0  0  0  2  0  0  0  0  0  0
  145.6640  135.9760  151.4180 C   0  0  0  0  0  2  0  0  0  0  0  0
  148.1620  137.7800  153.6830 C   0  0  0  0  0  0  0  0  0  0  0  0
  147.6230  137.0230  152.6370 C   0  0  0  0  0  3  0  0  0  0  0  0
  146.2410  136.7640  152.5690 C   0  0  0  0  0  0  0  0  0  0  0  0
  145.4000  137.2840  153.5600 C   0  0  0  0  0  3  0  0  0  0  0  0
  145.9280  138.0360  154.6100 C   0  0  0  0  0  3  0  0  0  0  0  0
  147.2990  138.2780  154.6670 C   0  0  0  0  0  0  0  0  0  0  0  0
  150.4410  137.1530  153.3450 C   0  0  0  0  0  1  0  0  0  0  0  0
  149.4890  138.0830  153.8380 O   0  0  0  0  0  0  0  0  0  0  0  0
  147.8120  139.0200  155.6980 O   0  0  0  0  0  0  0  0  0  0  0  0
  148.6930  138.8780  155.9850 H   0  0  0  0  0  0  0  0  0  0  0  0
  143.6010  137.1130  148.8840 C   0  0  0  0  0  0  0  0  0  0  0  0
  143.6490  136.5320  147.8020 O   0  0  0  0  0  0  0  0  0  0  0  0
  142.3100  137.1310  149.6850 C   0  0  0  0  0  2  0  0  0  0  0  0
  142.5870  137.0810  151.1810 C   0  0  0  0  0  2  0  0  0  0  0  0
  141.4730  137.6750  152.0040 C   0  0  0  0  0  0  0  0  0  0  0  0
  140.1800  137.7670  151.4830 C   0  0  0  0  0  3  0  0  0  0  0  0
  139.1580  138.3510  152.2320 C   0  0  0  0  0  3  0  0  0  0  0  0
  139.4120  138.8420  153.5180 C   0  0  0  0  0  0  0  0  0  0  0  0
  140.6960  138.7490  154.0660 C   0  0  0  0  0  0  0  0  0  0  0  0
  141.7140  138.1590  153.2980 C   0  0  0  0  0  3  0  0  0  0  0  0
  138.3770  139.4090  154.2070 O   0  0  0  0  0  0  0  0  0  0  0  0
  137.5000  139.3260  153.8880 H   0  0  0  0  0  0  0  0  0  0  0  0
  141.1310  139.1740  155.2920 O   0  0  0  0  0  0  0  0  0  0  0  0
  142.4650  139.6530  155.4050 C   0  0  0  0  0  1  0  0  0  0  0  0
  144.8890  139.2250  148.9950 C   0  0  0  0  0  2  0  0  0  0  0  0
  145.2380  140.2910  150.0130 C   0  0  0  0  0  0  0  0  0  0  0  0
  144.9020  140.0770  151.3600 C   0  0  0  0  0  3  0  0  0  0  0  0
  145.1910  141.0350  152.3340 C   0  0  0  0  0  3  0  0  0  0  0  0
  145.8330  142.2170  151.9780 C   0  0  0  0  0  3  0  0  0  0  0  0
  146.1950  142.4340  150.6520 C   0  0  0  0  0  3  0  0  0  0  0  0
  145.9090  141.4750  149.6770 C   0  0  0  0  0  3  0  0  0  0  0  0
  1 30  1  6  0  0  0
  2  1  1  0  0  0  0
  2  4  1  0  0  0  0
  3  2  2  0  0  0  0
  4  5  1  0  0  0  0
  5  8  1  0  0  0  0
  6 13  1  0  0  0  0
  6 11  1  0  0  0  0
  7  6  2  0  0  0  0
  8  7  1  0  0  0  0
  8  9  2  0  0  0  0
  9 10  1  0  0  0  0
 10 11  2  0  0  0  0
 11 14  1  0  0  0  0
 12 13  1  0  0  0  0
 14 15  1  0  0  0  0
 16  1  1  0  0  0  0
 16 18  1  0  0  0  0
 17 16  2  0  0  0  0
 18 19  1  0  0  0  0
 19 20  1  0  0  0  0
 20 25  1  0  0  0  0
 21 20  2  0  0  0  0
 21 22  1  0  0  0  0
 22 23  2  0  0  0  0
 23 24  1  0  0  0  0
 23 26  1  0  0  0  0
 24 28  1  0  0  0  0
 25 24  2  0  0  0  0
 27 26  1  0  0  0  0
 28 29  1  0  0  0  0
 30 31  1  0  0  0  0
 31 32  1  0  0  0  0
 32 33  2  0  0  0  0
 34 33  1  0  0  0  0
 35 34  2  0  0  0  0
 36 31  2  0  0  0  0
 36 35  1  0  0  0  0
M  END
>  <MODEL>
8

>  <REMARK>
 VINA RESULT:    -7.114      1.901      6.448
 INTER + INTRA:         -16.844
 INTER:                 -13.377
 INTRA:                  -3.468
 UNBOUND:                -4.324
  Name = CHEMBL4172855
  16 active torsions:
  status: ('A' for Active; 'I' for Inactive)
    1  A    between atoms: C_1  and  O_2
    2  A    between atoms: O_2  and  C_3
    3  A    between atoms: C_5  and  C_6
    4  A    between atoms: C_6  and  C_7
    5  A    between atoms: C_7  and  C_8
    6  A    between atoms: C_8  and  C_10
    7  A    between atoms: C_10  and  C_11
    8  A    between atoms: C_10  and  C_18
    9  A    between atoms: C_11  and  C_12
   10  A    between atoms: C_18  and  C_20
   11  A    between atoms: C_20  and  C_21
   12  A    between atoms: C_21  and  C_22
   13  A    between atoms: C_25  and  O_26
   14  A    between atoms: C_27  and  O_28
   15  A    between atoms: O_28  and  C_29
   16  A    between atoms: C_33  and  O_34
                            x       y       z     vdW  Elec       q    Type
                         _______ _______ _______ _____ _____    ______ ____

>  <TORSDO>
F 14

>  <SCORE>
-7.114

>  <RMSD_LB>
1.901

>  <RMSD_UB>
6.448

$$$$
CHEMBL4172855
 OpenBabel10172500393D

 36 38  0  0  1  0  0  0  0  0999 V2000
  145.5400  137.7220  149.3910 C   0  0  2  0  0  3  0  0  0  0  0  0
  146.5270  136.5670  149.5380 C   0  0  0  0  0  0  0  0  0  0  0  0
  146.8780  135.8590  148.5940 O   0  0  0  0  0  0  0  0  0  0  0  0
  147.1250  136.3290  150.9120 C   0  0  0  0  0  2  0  0  0  0  0  0
  146.0420  135.9210  151.9060 C   0  0  0  0  0  2  0  0  0  0  0  0
  146.1930  138.3230  154.8780 C   0  0  0  0  0  0  0  0  0  0  0  0
  146.5020  137.2860  153.9900 C   0  0  0  0  0  3  0  0  0  0  0  0
  145.6820  137.0180  152.8780 C   0  0  0  0  0  0  0  0  0  0  0  0
  144.5500  137.8110  152.6580 C   0  0  0  0  0  3  0  0  0  0  0  0
  144.2300  138.8440  153.5400 C   0  0  0  0  0  3  0  0  0  0  0  0
  145.0490  139.0930  154.6400 C   0  0  0  0  0  0  0  0  0  0  0  0
  148.1700  138.0040  156.1800 C   0  0  0  0  0  1  0  0  0  0  0  0
  146.9250  138.6600  155.9860 O   0  0  0  0  0  0  0  0  0  0  0  0
  144.7330  140.1110  155.5010 O   0  0  0  0  0  0  0  0  0  0  0  0
  144.9560  140.9950  155.2830 H   0  0  0  0  0  0  0  0  0  0  0  0
  144.5660  137.4760  148.2490 C   0  0  0  0  0  0  0  0  0  0  0  0
  144.7740  137.9200  147.1220 O   0  0  0  0  0  0  0  0  0  0  0  0
  143.3540  136.6000  148.5140 C   0  0  0  0  0  2  0  0  0  0  0  0
  142.9710  136.6150  149.9870 C   0  0  0  0  0  2  0  0  0  0  0  0
  141.9350  137.6600  150.3140 C   0  0  0  0  0  0  0  0  0  0  0  0
  142.0950  138.9760  149.8760 C   0  0  0  0  0  3  0  0  0  0  0  0
  141.1530  139.9510  150.2100 C   0  0  0  0  0  3  0  0  0  0  0  0
  140.0320  139.6180  150.9790 C   0  0  0  0  0  0  0  0  0  0  0  0
  139.8430  138.3040  151.4180 C   0  0  0  0  0  0  0  0  0  0  0  0
  140.8010  137.3360  151.0740 C   0  0  0  0  0  3  0  0  0  0  0  0
  139.1430  140.6120  151.2820 O   0  0  0  0  0  0  0  0  0  0  0  0
  138.6920  141.0620  150.5970 H   0  0  0  0  0  0  0  0  0  0  0  0
  138.8220  137.7980  152.1760 O   0  0  0  0  0  0  0  0  0  0  0  0
  138.9010  137.9310  153.5900 C   0  0  0  0  0  1  0  0  0  0  0  0
  146.2290  139.0780  149.1440 C   0  0  0  0  0  2  0  0  0  0  0  0
  146.2770  140.0540  150.3020 C   0  0  0  0  0  0  0  0  0  0  0  0
  145.2630  141.0190  150.4170 C   0  0  0  0  0  3  0  0  0  0  0  0
  145.2700  141.9490  151.4580 C   0  0  0  0  0  3  0  0  0  0  0  0
  146.2850  141.9190  152.4100 C   0  0  0  0  0  3  0  0  0  0  0  0
  147.2840  140.9540  152.3240 C   0  0  0  0  0  3  0  0  0  0  0  0
  147.2760  140.0210  151.2840 C   0  0  0  0  0  3  0  0  0  0  0  0
  1 30  1  6  0  0  0
  1  2  1  0  0  0  0
  2  4  1  0  0  0  0
  3  2  2  0  0  0  0
  4  5  1  0  0  0  0
  5  8  1  0  0  0  0
  6 13  1  0  0  0  0
  7  6  2  0  0  0  0
  8  7  1  0  0  0  0
  9  8  2  0  0  0  0
  9 10  1  0  0  0  0
 10 11  2  0  0  0  0
 11  6  1  0  0  0  0
 11 14  1  0  0  0  0
 13 12  1  0  0  0  0
 15 14  1  0  0  0  0
 16 18  1  0  0  0  0
 16  1  1  0  0  0  0
 17 16  2  0  0  0  0
 18 19  1  0  0  0  0
 19 20  1  0  0  0  0
 20 25  1  0  0  0  0
 21 22  1  0  0  0  0
 21 20  2  0  0  0  0
 22 23  2  0  0  0  0
 23 26  1  0  0  0  0
 23 24  1  0  0  0  0
 24 28  1  0  0  0  0
 25 24  2  0  0  0  0
 27 26  1  0  0  0  0
 28 29  1  0  0  0  0
 30 31  1  0  0  0  0
 31 32  2  0  0  0  0
 31 36  1  0  0  0  0
 32 33  1  0  0  0  0
 33 34  2  0  0  0  0
 35 34  1  0  0  0  0
 36 35  2  0  0  0  0
M  END
>  <MODEL>
9

>  <REMARK>
 VINA RESULT:    -7.058      1.658      5.994
 INTER + INTRA:         -16.746
 INTER:                 -12.422
 INTRA:                  -4.324
 UNBOUND:                -4.324
  Name = CHEMBL4172855
  16 active torsions:
  status: ('A' for Active; 'I' for Inactive)
    1  A    between atoms: C_1  and  O_2
    2  A    between atoms: O_2  and  C_3
    3  A    between atoms: C_5  and  C_6
    4  A    between atoms: C_6  and  C_7
    5  A    between atoms: C_7  and  C_8
    6  A    between atoms: C_8  and  C_10
    7  A    between atoms: C_10  and  C_11
    8  A    between atoms: C_10  and  C_18
    9  A    between atoms: C_11  and  C_12
   10  A    between atoms: C_18  and  C_20
   11  A    between atoms: C_20  and  C_21
   12  A    between atoms: C_21  and  C_22
   13  A    between atoms: C_25  and  O_26
   14  A    between atoms: C_27  and  O_28
   15  A    between atoms: O_28  and  C_29
   16  A    between atoms: C_33  and  O_34
                            x       y       z     vdW  Elec       q    Type
                         _______ _______ _______ _____ _____    ______ ____

>  <TORSDO>
F 14

>  <SCORE>
-7.058

>  <RMSD_LB>
1.658

>  <RMSD_UB>
5.994

$$$$
