CHEMBL1254325
 OpenBabel10172500003D

 29 30  0  0  0  0  0  0  0  0999 V2000
  142.1820  138.5040  148.5640 C   0  0  0  0  0  2  0  0  0  0  0  0
  143.4580  139.2950  148.4740 C   0  0  0  0  0  0  0  0  0  0  0  0
  143.7460  139.9290  147.4620 O   0  0  0  0  0  0  0  0  0  0  0  0
  144.5650  140.5680  150.2580 C   0  0  0  0  0  3  0  0  0  0  0  0
  144.2980  139.3750  149.7050 C   0  0  0  0  0  3  0  0  0  0  0  0
  146.7170  139.8950  153.3140 C   0  0  0  0  0  0  0  0  0  0  0  0
  145.9270  139.6820  152.1800 C   0  0  0  0  0  3  0  0  0  0  0  0
  145.3710  140.7600  151.4710 C   0  0  0  0  0  0  0  0  0  0  0  0
  145.6440  142.0650  151.8990 C   0  0  0  0  0  3  0  0  0  0  0  0
  146.4320  142.2930  153.0270 C   0  0  0  0  0  3  0  0  0  0  0  0
  146.9600  141.2110  153.7290 C   0  0  0  0  0  0  0  0  0  0  0  0
  146.4280  137.8920  154.5710 C   0  0  0  0  0  1  0  0  0  0  0  0
  147.2900  138.9010  154.0630 O   0  0  0  0  0  0  0  0  0  0  0  0
  147.7320  141.4340  154.8390 O   0  0  0  0  0  0  0  0  0  0  0  0
  148.1410  140.7130  155.2770 H   0  0  0  0  0  0  0  0  0  0  0  0
  141.1060  139.1210  149.4210 C   0  0  0  0  0  0  0  0  0  0  0  0
  140.9770  140.3400  149.5360 O   0  0  0  0  0  0  0  0  0  0  0  0
  140.1630  138.1720  150.1360 C   0  0  0  0  0  2  0  0  0  0  0  0
  140.9350  137.2170  151.0370 C   0  0  0  0  0  2  0  0  0  0  0  0
  141.2620  137.8070  152.3820 C   0  0  0  0  0  0  0  0  0  0  0  0
  142.5660  138.2150  152.6740 C   0  0  0  0  0  3  0  0  0  0  0  0
  142.8780  138.7250  153.9340 C   0  0  0  0  0  3  0  0  0  0  0  0
  141.8880  138.8440  154.9160 C   0  0  0  0  0  0  0  0  0  0  0  0
  140.5740  138.4510  154.6450 C   0  0  0  0  0  0  0  0  0  0  0  0
  140.2750  137.9400  153.3710 C   0  0  0  0  0  3  0  0  0  0  0  0
  142.2480  139.3480  156.1350 O   0  0  0  0  0  0  0  0  0  0  0  0
  143.1490  139.3440  156.3960 H   0  0  0  0  0  0  0  0  0  0  0  0
  139.4850  138.4840  155.4740 O   0  0  0  0  0  0  0  0  0  0  0  0
  138.1950  138.5700  154.8850 C   0  0  0  0  0  1  0  0  0  0  0  0
  1 16  1  0  0  0  0
  2  1  1  0  0  0  0
  2  5  1  0  0  0  0
  3  2  2  0  0  0  0
  4  8  1  0  0  0  0
  5  4  2  0  0  0  0
  6 11  1  0  0  0  0
  6 13  1  0  0  0  0
  7  6  2  0  0  0  0
  8  9  2  0  0  0  0
  8  7  1  0  0  0  0
  9 10  1  0  0  0  0
 10 11  2  0  0  0  0
 11 14  1  0  0  0  0
 13 12  1  0  0  0  0
 14 15  1  0  0  0  0
 16 17  2  0  0  0  0
 16 18  1  0  0  0  0
 18 19  1  0  0  0  0
 19 20  1  0  0  0  0
 20 21  2  0  0  0  0
 20 25  1  0  0  0  0
 21 22  1  0  0  0  0
 22 23  2  0  0  0  0
 23 26  1  0  0  0  0
 24 23  1  0  0  0  0
 24 28  1  0  0  0  0
 25 24  2  0  0  0  0
 26 27  1  0  0  0  0
 29 28  1  0  0  0  0
M  END
>  <MODEL>
1

>  <REMARK>
 VINA RESULT:    -7.645      0.000      0.000
 INTER + INTRA:         -12.945
 INTER:                 -10.990
 INTRA:                  -1.955
 UNBOUND:                -0.830
  Name = CHEMBL1254325
  13 active torsions:
  status: ('A' for Active; 'I' for Inactive)
    1  A    between atoms: C_1  and  O_2
    2  A    between atoms: O_2  and  C_3
    3  A    between atoms: C_5  and  C_6
    4  A    between atoms: C_7  and  C_8
    5  A    between atoms: C_8  and  C_10
    6  A    between atoms: C_10  and  C_11
    7  A    between atoms: C_11  and  C_13
    8  A    between atoms: C_13  and  C_14
    9  A    between atoms: C_14  and  C_15
   10  A    between atoms: C_18  and  O_19
   11  A    between atoms: C_20  and  O_21
   12  A    between atoms: O_21  and  C_22
   13  A    between atoms: C_26  and  O_27
                            x       y       z     vdW  Elec       q    Type
                         _______ _______ _______ _____ _____    ______ ____

>  <TORSDO>
F 11

>  <SCORE>
-7.645

>  <RMSD_LB>
0.000

>  <RMSD_UB>
0.000

$$$$
CHEMBL1254325
 OpenBabel10172500003D

 29 30  0  0  0  0  0  0  0  0999 V2000
  145.7430  136.7790  148.5970 C   0  0  0  0  0  2  0  0  0  0  0  0
  145.3120  136.2990  149.9560 C   0  0  0  0  0  0  0  0  0  0  0  0
  146.1090  135.7770  150.7320 O   0  0  0  0  0  0  0  0  0  0  0  0
  143.6600  137.1510  151.5610 C   0  0  0  0  0  3  0  0  0  0  0  0
  143.9070  136.5910  150.3660 C   0  0  0  0  0  3  0  0  0  0  0  0
  140.8230  138.3240  153.7960 C   0  0  0  0  0  0  0  0  0  0  0  0
  142.1060  137.9810  153.3570 C   0  0  0  0  0  3  0  0  0  0  0  0
  142.3200  137.4880  152.0600 C   0  0  0  0  0  0  0  0  0  0  0  0
  141.2290  137.3710  151.1900 C   0  0  0  0  0  3  0  0  0  0  0  0
  139.9430  137.7110  151.6130 C   0  0  0  0  0  3  0  0  0  0  0  0
  139.7470  138.1810  152.9100 C   0  0  0  0  0  0  0  0  0  0  0  0
  140.5960  137.8860  156.1270 C   0  0  0  0  0  1  0  0  0  0  0  0
  140.5290  138.8050  155.0450 O   0  0  0  0  0  0  0  0  0  0  0  0
  138.4850  138.5130  153.3270 O   0  0  0  0  0  0  0  0  0  0  0  0
  138.3070  138.6250  154.2410 H   0  0  0  0  0  0  0  0  0  0  0  0
  145.5060  138.2440  148.3310 C   0  0  0  0  0  0  0  0  0  0  0  0
  144.7090  138.6350  147.4790 O   0  0  0  0  0  0  0  0  0  0  0  0
  146.2860  139.2350  149.1740 C   0  0  0  0  0  2  0  0  0  0  0  0
  145.3440  140.1050  149.9960 C   0  0  0  0  0  2  0  0  0  0  0  0
  145.9450  140.5600  151.3000 C   0  0  0  0  0  0  0  0  0  0  0  0
  145.7650  141.8740  151.7360 C   0  0  0  0  0  3  0  0  0  0  0  0
  146.3540  142.3070  152.9240 C   0  0  0  0  0  3  0  0  0  0  0  0
  147.1230  141.4290  153.6960 C   0  0  0  0  0  0  0  0  0  0  0  0
  147.3090  140.1060  153.2840 C   0  0  0  0  0  0  0  0  0  0  0  0
  146.7090  139.6850  152.0860 C   0  0  0  0  0  3  0  0  0  0  0  0
  147.6800  141.9060  154.8500 O   0  0  0  0  0  0  0  0  0  0  0  0
  148.6070  142.0340  154.9040 H   0  0  0  0  0  0  0  0  0  0  0  0
  148.0290  139.1150  153.8960 O   0  0  0  0  0  0  0  0  0  0  0  0
  147.3420  137.9390  154.3000 C   0  0  0  0  0  1  0  0  0  0  0  0
  1  2  1  0  0  0  0
  2  5  1  0  0  0  0
  2  3  2  0  0  0  0
  4  8  1  0  0  0  0
  5  4  2  0  0  0  0
  6 13  1  0  0  0  0
  7  6  1  0  0  0  0
  8  7  2  0  0  0  0
  9 10  2  0  0  0  0
  9  8  1  0  0  0  0
 10 11  1  0  0  0  0
 11 14  1  0  0  0  0
 11  6  2  0  0  0  0
 13 12  1  0  0  0  0
 14 15  1  0  0  0  0
 16  1  1  0  0  0  0
 16 18  1  0  0  0  0
 17 16  2  0  0  0  0
 18 19  1  0  0  0  0
 19 20  1  0  0  0  0
 20 21  2  0  0  0  0
 20 25  1  0  0  0  0
 21 22  1  0  0  0  0
 22 23  2  0  0  0  0
 23 26  1  0  0  0  0
 24 23  1  0  0  0  0
 24 28  1  0  0  0  0
 25 24  2  0  0  0  0
 26 27  1  0  0  0  0
 28 29  1  0  0  0  0
M  END
>  <MODEL>
2

>  <REMARK>
 VINA RESULT:    -7.370      1.770      6.185
 INTER + INTRA:         -12.508
 INTER:                 -10.777
 INTRA:                  -1.731
 UNBOUND:                -0.830
  Name = CHEMBL1254325
  13 active torsions:
  status: ('A' for Active; 'I' for Inactive)
    1  A    between atoms: C_1  and  O_2
    2  A    between atoms: O_2  and  C_3
    3  A    between atoms: C_5  and  C_6
    4  A    between atoms: C_7  and  C_8
    5  A    between atoms: C_8  and  C_10
    6  A    between atoms: C_10  and  C_11
    7  A    between atoms: C_11  and  C_13
    8  A    between atoms: C_13  and  C_14
    9  A    between atoms: C_14  and  C_15
   10  A    between atoms: C_18  and  O_19
   11  A    between atoms: C_20  and  O_21
   12  A    between atoms: O_21  and  C_22
   13  A    between atoms: C_26  and  O_27
                            x       y       z     vdW  Elec       q    Type
                         _______ _______ _______ _____ _____    ______ ____

>  <TORSDO>
F 11

>  <SCORE>
-7.370

>  <RMSD_LB>
1.770

>  <RMSD_UB>
6.185

$$$$
CHEMBL1254325
 OpenBabel10172500003D

 29 30  0  0  0  0  0  0  0  0999 V2000
  148.1160  139.5410  154.3080 C   0  0  0  0  0  2  0  0  0  0  0  0
  147.3100  140.7300  153.8620 C   0  0  0  0  0  0  0  0  0  0  0  0
  147.4580  141.8340  154.3810 O   0  0  0  0  0  0  0  0  0  0  0  0
  146.9020  140.0430  151.5400 C   0  0  0  0  0  3  0  0  0  0  0  0
  146.4110  140.5400  152.6860 C   0  0  0  0  0  3  0  0  0  0  0  0
  144.0120  139.9070  149.0810 C   0  0  0  0  0  0  0  0  0  0  0  0
  144.7380  140.1120  150.2590 C   0  0  0  0  0  3  0  0  0  0  0  0
  146.1070  139.8070  150.3280 C   0  0  0  0  0  0  0  0  0  0  0  0
  146.7520  139.3200  149.1840 C   0  0  0  0  0  3  0  0  0  0  0  0
  146.0410  139.1130  148.0010 C   0  0  0  0  0  3  0  0  0  0  0  0
  144.6780  139.4020  147.9570 C   0  0  0  0  0  0  0  0  0  0  0  0
  141.8500  140.0100  150.0800 C   0  0  0  0  0  1  0  0  0  0  0  0
  142.6750  140.1720  148.9340 O   0  0  0  0  0  0  0  0  0  0  0  0
  143.9790  139.1970  146.7970 O   0  0  0  0  0  0  0  0  0  0  0  0
  143.1460  139.6090  146.6730 H   0  0  0  0  0  0  0  0  0  0  0  0
  147.3480  138.5010  155.0840 C   0  0  0  0  0  0  0  0  0  0  0  0
  147.0130  138.6720  156.2560 O   0  0  0  0  0  0  0  0  0  0  0  0
  146.9820  137.2240  154.3520 C   0  0  0  0  0  2  0  0  0  0  0  0
  145.4920  137.1860  154.0410 C   0  0  0  0  0  2  0  0  0  0  0  0
  145.1960  136.8400  152.6060 C   0  0  0  0  0  0  0  0  0  0  0  0
  143.9310  137.0920  152.0680 C   0  0  0  0  0  3  0  0  0  0  0  0
  143.6440  136.7350  150.7500 C   0  0  0  0  0  3  0  0  0  0  0  0
  144.6210  136.1310  149.9500 C   0  0  0  0  0  0  0  0  0  0  0  0
  145.8960  135.8770  150.4640 C   0  0  0  0  0  0  0  0  0  0  0  0
  146.1700  136.2430  151.7920 C   0  0  0  0  0  3  0  0  0  0  0  0
  144.2860  135.7990  148.6660 O   0  0  0  0  0  0  0  0  0  0  0  0
  144.3340  134.9060  148.3860 H   0  0  0  0  0  0  0  0  0  0  0  0
  146.9650  135.2920  149.8410 O   0  0  0  0  0  0  0  0  0  0  0  0
  148.2510  135.8660  150.0330 C   0  0  0  0  0  1  0  0  0  0  0  0
  1 16  1  0  0  0  0
  2  1  1  0  0  0  0
  2  3  2  0  0  0  0
  4  5  2  0  0  0  0
  5  2  1  0  0  0  0
  6  7  1  0  0  0  0
  7  8  2  0  0  0  0
  8  4  1  0  0  0  0
  9  8  1  0  0  0  0
 10  9  2  0  0  0  0
 11 10  1  0  0  0  0
 11  6  2  0  0  0  0
 13  6  1  0  0  0  0
 13 12  1  0  0  0  0
 14 11  1  0  0  0  0
 15 14  1  0  0  0  0
 16 17  2  0  0  0  0
 18 16  1  0  0  0  0
 19 18  1  0  0  0  0
 20 19  1  0  0  0  0
 21 20  1  0  0  0  0
 22 21  2  0  0  0  0
 23 24  2  0  0  0  0
 23 22  1  0  0  0  0
 24 25  1  0  0  0  0
 25 20  2  0  0  0  0
 26 23  1  0  0  0  0
 27 26  1  0  0  0  0
 28 29  1  0  0  0  0
 28 24  1  0  0  0  0
M  END
>  <MODEL>
3

>  <REMARK>
 VINA RESULT:    -7.297      2.927      6.743
 INTER + INTRA:         -12.393
 INTER:                  -9.371
 INTRA:                  -3.022
 UNBOUND:                -0.830
  Name = CHEMBL1254325
  13 active torsions:
  status: ('A' for Active; 'I' for Inactive)
    1  A    between atoms: C_1  and  O_2
    2  A    between atoms: O_2  and  C_3
    3  A    between atoms: C_5  and  C_6
    4  A    between atoms: C_7  and  C_8
    5  A    between atoms: C_8  and  C_10
    6  A    between atoms: C_10  and  C_11
    7  A    between atoms: C_11  and  C_13
    8  A    between atoms: C_13  and  C_14
    9  A    between atoms: C_14  and  C_15
   10  A    between atoms: C_18  and  O_19
   11  A    between atoms: C_20  and  O_21
   12  A    between atoms: O_21  and  C_22
   13  A    between atoms: C_26  and  O_27
                            x       y       z     vdW  Elec       q    Type
                         _______ _______ _______ _____ _____    ______ ____

>  <TORSDO>
F 11

>  <SCORE>
-7.297

>  <RMSD_LB>
2.927

>  <RMSD_UB>
6.743

$$$$
CHEMBL1254325
 OpenBabel10172500003D

 29 30  0  0  0  0  0  0  0  0999 V2000
  134.6600  133.6580  148.9580 C   0  0  0  0  0  2  0  0  0  0  0  0
  135.5060  134.5360  148.0770 C   0  0  0  0  0  0  0  0  0  0  0  0
  135.3550  134.5530  146.8580 O   0  0  0  0  0  0  0  0  0  0  0  0
  136.2910  136.7980  148.6230 C   0  0  0  0  0  3  0  0  0  0  0  0
  136.4510  135.4720  148.7550 C   0  0  0  0  0  3  0  0  0  0  0  0
  138.8510  138.4670  150.8770 C   0  0  0  0  0  0  0  0  0  0  0  0
  138.0150  137.4960  150.3170 C   0  0  0  0  0  3  0  0  0  0  0  0
  137.1550  137.8060  149.2520 C   0  0  0  0  0  0  0  0  0  0  0  0
  137.1630  139.1060  148.7300 C   0  0  0  0  0  3  0  0  0  0  0  0
  137.9930  140.0860  149.2770 C   0  0  0  0  0  3  0  0  0  0  0  0
  138.8270  139.7640  150.3460 C   0  0  0  0  0  0  0  0  0  0  0  0
  140.8800  137.4830  151.6470 C   0  0  0  0  0  1  0  0  0  0  0  0
  139.7130  138.2480  151.9190 O   0  0  0  0  0  0  0  0  0  0  0  0
  139.6400  140.7260  150.8850 O   0  0  0  0  0  0  0  0  0  0  0  0
  139.3670  141.6230  150.8880 H   0  0  0  0  0  0  0  0  0  0  0  0
  133.2440  134.1330  149.1640 C   0  0  0  0  0  0  0  0  0  0  0  0
  132.2910  133.6310  148.5690 O   0  0  0  0  0  0  0  0  0  0  0  0
  133.0300  135.2580  150.1590 C   0  0  0  0  0  2  0  0  0  0  0  0
  132.8290  134.7070  151.5650 C   0  0  0  0  0  2  0  0  0  0  0  0
  133.9470  135.0670  152.5070 C   0  0  0  0  0  0  0  0  0  0  0  0
  134.9990  135.8780  152.0730 C   0  0  0  0  0  3  0  0  0  0  0  0
  136.0550  136.1800  152.9330 C   0  0  0  0  0  3  0  0  0  0  0  0
  136.0680  135.6830  154.2420 C   0  0  0  0  0  0  0  0  0  0  0  0
  135.0220  134.8770  154.7010 C   0  0  0  0  0  0  0  0  0  0  0  0
  133.9650  134.5830  153.8240 C   0  0  0  0  0  3  0  0  0  0  0  0
  137.1280  136.0080  155.0420 O   0  0  0  0  0  0  0  0  0  0  0  0
  137.8770  135.4440  155.0780 H   0  0  0  0  0  0  0  0  0  0  0  0
  134.8690  134.2980  155.9320 O   0  0  0  0  0  0  0  0  0  0  0  0
  133.8810  134.8290  156.8050 C   0  0  0  0  0  1  0  0  0  0  0  0
  1 16  1  0  0  0  0
  2  5  1  0  0  0  0
  2  1  1  0  0  0  0
  3  2  2  0  0  0  0
  4  5  2  0  0  0  0
  4  8  1  0  0  0  0
  6 13  1  0  0  0  0
  7  6  2  0  0  0  0
  8  7  1  0  0  0  0
  9  8  2  0  0  0  0
  9 10  1  0  0  0  0
 10 11  2  0  0  0  0
 11  6  1  0  0  0  0
 11 14  1  0  0  0  0
 12 13  1  0  0  0  0
 14 15  1  0  0  0  0
 16 18  1  0  0  0  0
 17 16  2  0  0  0  0
 18 19  1  0  0  0  0
 19 20  1  0  0  0  0
 20 25  1  0  0  0  0
 21 20  2  0  0  0  0
 21 22  1  0  0  0  0
 22 23  2  0  0  0  0
 23 24  1  0  0  0  0
 23 26  1  0  0  0  0
 24 28  1  0  0  0  0
 25 24  2  0  0  0  0
 26 27  1  0  0  0  0
 28 29  1  0  0  0  0
M  END
>  <MODEL>
4

>  <REMARK>
 VINA RESULT:    -6.939      5.441      8.314
 INTER + INTRA:         -11.826
 INTER:                  -9.998
 INTRA:                  -1.828
 UNBOUND:                -0.830
  Name = CHEMBL1254325
  13 active torsions:
  status: ('A' for Active; 'I' for Inactive)
    1  A    between atoms: C_1  and  O_2
    2  A    between atoms: O_2  and  C_3
    3  A    between atoms: C_5  and  C_6
    4  A    between atoms: C_7  and  C_8
    5  A    between atoms: C_8  and  C_10
    6  A    between atoms: C_10  and  C_11
    7  A    between atoms: C_11  and  C_13
    8  A    between atoms: C_13  and  C_14
    9  A    between atoms: C_14  and  C_15
   10  A    between atoms: C_18  and  O_19
   11  A    between atoms: C_20  and  O_21
   12  A    between atoms: O_21  and  C_22
   13  A    between atoms: C_26  and  O_27
                            x       y       z     vdW  Elec       q    Type
                         _______ _______ _______ _____ _____    ______ ____

>  <TORSDO>
F 11

>  <SCORE>
-6.939

>  <RMSD_LB>
5.441

>  <RMSD_UB>
8.314

$$$$
CHEMBL1254325
 OpenBabel10172500003D

 29 30  0  0  0  0  0  0  0  0999 V2000
  148.1520  139.8560  153.8800 C   0  0  0  0  0  2  0  0  0  0  0  0
  147.1600  140.9450  153.5740 C   0  0  0  0  0  0  0  0  0  0  0  0
  147.1440  141.9930  154.2140 O   0  0  0  0  0  0  0  0  0  0  0  0
  146.8130  140.4420  151.1950 C   0  0  0  0  0  3  0  0  0  0  0  0
  146.2760  140.7470  152.3870 C   0  0  0  0  0  3  0  0  0  0  0  0
  145.8890  139.7220  147.5830 C   0  0  0  0  0  0  0  0  0  0  0  0
  146.6520  139.9640  148.7300 C   0  0  0  0  0  3  0  0  0  0  0  0
  146.0390  140.2170  149.9680 C   0  0  0  0  0  0  0  0  0  0  0  0
  144.6400  140.1950  150.0490 C   0  0  0  0  0  3  0  0  0  0  0  0
  143.8670  139.9530  148.9130 C   0  0  0  0  0  3  0  0  0  0  0  0
  144.4920  139.7230  147.6900 C   0  0  0  0  0  0  0  0  0  0  0  0
  147.7060  138.8940  146.2810 C   0  0  0  0  0  1  0  0  0  0  0  0
  146.4090  139.4730  146.3400 O   0  0  0  0  0  0  0  0  0  0  0  0
  143.7330  139.4870  146.5740 O   0  0  0  0  0  0  0  0  0  0  0  0
  144.1290  139.5100  145.7240 H   0  0  0  0  0  0  0  0  0  0  0  0
  147.6120  138.7080  154.6930 C   0  0  0  0  0  0  0  0  0  0  0  0
  147.2470  138.8460  155.8610 O   0  0  0  0  0  0  0  0  0  0  0  0
  147.5190  137.3580  154.0070 C   0  0  0  0  0  2  0  0  0  0  0  0
  146.1240  137.1350  153.4390 C   0  0  0  0  0  2  0  0  0  0  0  0
  146.1260  136.8400  151.9620 C   0  0  0  0  0  0  0  0  0  0  0  0
  147.3350  136.7250  151.2700 C   0  0  0  0  0  3  0  0  0  0  0  0
  147.3380  136.4910  149.8950 C   0  0  0  0  0  3  0  0  0  0  0  0
  146.1330  136.3580  149.1950 C   0  0  0  0  0  0  0  0  0  0  0  0
  144.9110  136.4610  149.8680 C   0  0  0  0  0  0  0  0  0  0  0  0
  144.9250  136.6960  151.2530 C   0  0  0  0  0  3  0  0  0  0  0  0
  146.1930  136.1320  147.8480 O   0  0  0  0  0  0  0  0  0  0  0  0
  145.7240  136.6910  147.2590 H   0  0  0  0  0  0  0  0  0  0  0  0
  143.6450  136.3700  149.3550 O   0  0  0  0  0  0  0  0  0  0  0  0
  143.1450  135.0820  149.0280 C   0  0  0  0  0  1  0  0  0  0  0  0
  1 16  1  0  0  0  0
  2  1  1  0  0  0  0
  2  3  2  0  0  0  0
  4  5  2  0  0  0  0
  5  2  1  0  0  0  0
  6 11  2  0  0  0  0
  6  7  1  0  0  0  0
  7  8  2  0  0  0  0
  8  9  1  0  0  0  0
  8  4  1  0  0  0  0
 10  9  2  0  0  0  0
 11 10  1  0  0  0  0
 12 13  1  0  0  0  0
 13  6  1  0  0  0  0
 14 11  1  0  0  0  0
 15 14  1  0  0  0  0
 16 17  2  0  0  0  0
 18 16  1  0  0  0  0
 19 18  1  0  0  0  0
 20 19  1  0  0  0  0
 21 20  1  0  0  0  0
 22 21  2  0  0  0  0
 23 24  2  0  0  0  0
 23 22  1  0  0  0  0
 24 25  1  0  0  0  0
 25 20  2  0  0  0  0
 26 23  1  0  0  0  0
 27 26  1  0  0  0  0
 28 24  1  0  0  0  0
 29 28  1  0  0  0  0
M  END
>  <MODEL>
5

>  <REMARK>
 VINA RESULT:    -6.803      3.605      6.781
 INTER + INTRA:         -11.611
 INTER:                  -8.487
 INTRA:                  -3.123
 UNBOUND:                -0.830
  Name = CHEMBL1254325
  13 active torsions:
  status: ('A' for Active; 'I' for Inactive)
    1  A    between atoms: C_1  and  O_2
    2  A    between atoms: O_2  and  C_3
    3  A    between atoms: C_5  and  C_6
    4  A    between atoms: C_7  and  C_8
    5  A    between atoms: C_8  and  C_10
    6  A    between atoms: C_10  and  C_11
    7  A    between atoms: C_11  and  C_13
    8  A    between atoms: C_13  and  C_14
    9  A    between atoms: C_14  and  C_15
   10  A    between atoms: C_18  and  O_19
   11  A    between atoms: C_20  and  O_21
   12  A    between atoms: O_21  and  C_22
   13  A    between atoms: C_26  and  O_27
                            x       y       z     vdW  Elec       q    Type
                         _______ _______ _______ _____ _____    ______ ____

>  <TORSDO>
F 11

>  <SCORE>
-6.803

>  <RMSD_LB>
3.605

>  <RMSD_UB>
6.781

$$$$
CHEMBL1254325
 OpenBabel10172500003D

 29 30  0  0  0  0  0  0  0  0999 V2000
  139.9460  138.1040  149.2280 C   0  0  0  0  0  2  0  0  0  0  0  0
  139.2750  138.2910  150.5620 C   0  0  0  0  0  0  0  0  0  0  0  0
  139.2940  139.3740  151.1400 O   0  0  0  0  0  0  0  0  0  0  0  0
  137.2190  137.3240  151.4940 C   0  0  0  0  0  3  0  0  0  0  0  0
  138.4880  137.1400  151.0940 C   0  0  0  0  0  3  0  0  0  0  0  0
  134.8560  134.3610  151.7200 C   0  0  0  0  0  0  0  0  0  0  0  0
  135.6480  135.3830  151.1880 C   0  0  0  0  0  3  0  0  0  0  0  0
  136.3530  136.2630  152.0250 C   0  0  0  0  0  0  0  0  0  0  0  0
  136.2780  136.0870  153.4120 C   0  0  0  0  0  3  0  0  0  0  0  0
  135.4920  135.0700  153.9570 C   0  0  0  0  0  3  0  0  0  0  0  0
  134.7840  134.2180  153.1120 C   0  0  0  0  0  0  0  0  0  0  0  0
  132.8900  133.9130  150.4480 C   0  0  0  0  0  1  0  0  0  0  0  0
  134.1330  133.4670  150.9740 O   0  0  0  0  0  0  0  0  0  0  0  0
  134.0110  133.2210  153.6460 O   0  0  0  0  0  0  0  0  0  0  0  0
  133.0800  133.2440  153.5420 H   0  0  0  0  0  0  0  0  0  0  0  0
  141.3910  137.6800  149.2920 C   0  0  0  0  0  0  0  0  0  0  0  0
  142.2520  138.1750  148.5650 O   0  0  0  0  0  0  0  0  0  0  0  0
  141.7550  136.6170  150.3110 C   0  0  0  0  0  2  0  0  0  0  0  0
  143.1090  136.9120  150.9420 C   0  0  0  0  0  2  0  0  0  0  0  0
  143.0070  137.7040  152.2180 C   0  0  0  0  0  0  0  0  0  0  0  0
  141.8040  137.7430  152.9270 C   0  0  0  0  0  3  0  0  0  0  0  0
  141.6960  138.5080  154.0890 C   0  0  0  0  0  3  0  0  0  0  0  0
  142.7940  139.2360  154.5620 C   0  0  0  0  0  0  0  0  0  0  0  0
  144.0110  139.2050  153.8750 C   0  0  0  0  0  0  0  0  0  0  0  0
  144.1030  138.4300  152.7070 C   0  0  0  0  0  3  0  0  0  0  0  0
  142.6330  139.9710  155.7040 O   0  0  0  0  0  0  0  0  0  0  0  0
  143.2450  140.6500  155.9130 H   0  0  0  0  0  0  0  0  0  0  0  0
  145.1780  139.8530  154.1780 O   0  0  0  0  0  0  0  0  0  0  0  0
  146.1450  139.1640  154.9570 C   0  0  0  0  0  1  0  0  0  0  0  0
  1 16  1  0  0  0  0
  1  2  1  0  0  0  0
  2  5  1  0  0  0  0
  2  3  2  0  0  0  0
  4  8  1  0  0  0  0
  5  4  2  0  0  0  0
  6 11  1  0  0  0  0
  7  6  2  0  0  0  0
  7  8  1  0  0  0  0
  8  9  2  0  0  0  0
  9 10  1  0  0  0  0
 11 14  1  0  0  0  0
 11 10  2  0  0  0  0
 12 13  1  0  0  0  0
 13  6  1  0  0  0  0
 15 14  1  0  0  0  0
 16 18  1  0  0  0  0
 17 16  2  0  0  0  0
 18 19  1  0  0  0  0
 19 20  1  0  0  0  0
 20 25  2  0  0  0  0
 20 21  1  0  0  0  0
 21 22  2  0  0  0  0
 22 23  1  0  0  0  0
 23 26  1  0  0  0  0
 24 28  1  0  0  0  0
 24 23  2  0  0  0  0
 25 24  1  0  0  0  0
 26 27  1  0  0  0  0
 28 29  1  0  0  0  0
M  END
>  <MODEL>
6

>  <REMARK>
 VINA RESULT:    -6.726      3.894      8.401
 INTER + INTRA:         -11.489
 INTER:                 -10.438
 INTRA:                  -1.051
 UNBOUND:                -0.830
  Name = CHEMBL1254325
  13 active torsions:
  status: ('A' for Active; 'I' for Inactive)
    1  A    between atoms: C_1  and  O_2
    2  A    between atoms: O_2  and  C_3
    3  A    between atoms: C_5  and  C_6
    4  A    between atoms: C_7  and  C_8
    5  A    between atoms: C_8  and  C_10
    6  A    between atoms: C_10  and  C_11
    7  A    between atoms: C_11  and  C_13
    8  A    between atoms: C_13  and  C_14
    9  A    between atoms: C_14  and  C_15
   10  A    between atoms: C_18  and  O_19
   11  A    between atoms: C_20  and  O_21
   12  A    between atoms: O_21  and  C_22
   13  A    between atoms: C_26  and  O_27
                            x       y       z     vdW  Elec       q    Type
                         _______ _______ _______ _____ _____    ______ ____

>  <TORSDO>
F 11

>  <SCORE>
-6.726

>  <RMSD_LB>
3.894

>  <RMSD_UB>
8.401

$$$$
CHEMBL1254325
 OpenBabel10172500003D

 29 30  0  0  0  0  0  0  0  0999 V2000
  137.8190  135.0960  149.1220 C   0  0  0  0  0  2  0  0  0  0  0  0
  138.7510  135.8610  148.2220 C   0  0  0  0  0  0  0  0  0  0  0  0
  138.4510  136.1150  147.0590 O   0  0  0  0  0  0  0  0  0  0  0  0
  141.0770  135.6080  148.9690 C   0  0  0  0  0  3  0  0  0  0  0  0
  140.0010  136.3990  148.8370 C   0  0  0  0  0  3  0  0  0  0  0  0
  143.6610  137.3510  151.1370 C   0  0  0  0  0  0  0  0  0  0  0  0
  142.4310  136.9860  150.5800 C   0  0  0  0  0  3  0  0  0  0  0  0
  142.3570  136.0360  149.5490 C   0  0  0  0  0  0  0  0  0  0  0  0
  143.5360  135.4290  149.0990 C   0  0  0  0  0  3  0  0  0  0  0  0
  144.7700  135.7830  149.6460 C   0  0  0  0  0  3  0  0  0  0  0  0
  144.8270  136.7410  150.6560 C   0  0  0  0  0  0  0  0  0  0  0  0
  143.4470  139.6140  151.8550 C   0  0  0  0  0  1  0  0  0  0  0  0
  143.8200  138.2720  152.1390 O   0  0  0  0  0  0  0  0  0  0  0  0
  146.0380  137.0910  151.1920 O   0  0  0  0  0  0  0  0  0  0  0  0
  146.5170  136.4730  151.7100 H   0  0  0  0  0  0  0  0  0  0  0  0
  136.5890  135.8500  149.5580 C   0  0  0  0  0  0  0  0  0  0  0  0
  135.4580  135.5260  149.1960 O   0  0  0  0  0  0  0  0  0  0  0  0
  136.7960  137.0320  150.4860 C   0  0  0  0  0  2  0  0  0  0  0  0
  136.9910  136.5650  151.9230 C   0  0  0  0  0  2  0  0  0  0  0  0
  137.9730  137.4080  152.6910 C   0  0  0  0  0  0  0  0  0  0  0  0
  139.0680  137.9820  152.0400 C   0  0  0  0  0  3  0  0  0  0  0  0
  140.0010  138.7300  152.7580 C   0  0  0  0  0  3  0  0  0  0  0  0
  139.8460  138.9230  154.1360 C   0  0  0  0  0  0  0  0  0  0  0  0
  138.7530  138.3660  154.8080 C   0  0  0  0  0  0  0  0  0  0  0  0
  137.8220  137.6160  154.0700 C   0  0  0  0  0  3  0  0  0  0  0  0
  140.7900  139.6630  154.7920 O   0  0  0  0  0  0  0  0  0  0  0  0
  141.6840  139.6360  154.5100 H   0  0  0  0  0  0  0  0  0  0  0  0
  138.4440  138.4390  156.1390 O   0  0  0  0  0  0  0  0  0  0  0  0
  137.2780  137.7660  156.5950 C   0  0  0  0  0  1  0  0  0  0  0  0
  1 16  1  0  0  0  0
  2  5  1  0  0  0  0
  2  1  1  0  0  0  0
  3  2  2  0  0  0  0
  4  8  1  0  0  0  0
  5  4  2  0  0  0  0
  6 13  1  0  0  0  0
  7  6  2  0  0  0  0
  8  7  1  0  0  0  0
  9  8  2  0  0  0  0
  9 10  1  0  0  0  0
 10 11  2  0  0  0  0
 11  6  1  0  0  0  0
 11 14  1  0  0  0  0
 12 13  1  0  0  0  0
 14 15  1  0  0  0  0
 16 18  1  0  0  0  0
 17 16  2  0  0  0  0
 18 19  1  0  0  0  0
 19 20  1  0  0  0  0
 20 25  1  0  0  0  0
 21 20  2  0  0  0  0
 21 22  1  0  0  0  0
 22 23  2  0  0  0  0
 23 26  1  0  0  0  0
 23 24  1  0  0  0  0
 24 28  1  0  0  0  0
 25 24  2  0  0  0  0
 27 26  1  0  0  0  0
 28 29  1  0  0  0  0
M  END
>  <MODEL>
7

>  <REMARK>
 VINA RESULT:    -6.648      3.157      4.875
 INTER + INTRA:         -11.364
 INTER:                  -9.698
 INTRA:                  -1.666
 UNBOUND:                -0.830
  Name = CHEMBL1254325
  13 active torsions:
  status: ('A' for Active; 'I' for Inactive)
    1  A    between atoms: C_1  and  O_2
    2  A    between atoms: O_2  and  C_3
    3  A    between atoms: C_5  and  C_6
    4  A    between atoms: C_7  and  C_8
    5  A    between atoms: C_8  and  C_10
    6  A    between atoms: C_10  and  C_11
    7  A    between atoms: C_11  and  C_13
    8  A    between atoms: C_13  and  C_14
    9  A    between atoms: C_14  and  C_15
   10  A    between atoms: C_18  and  O_19
   11  A    between atoms: C_20  and  O_21
   12  A    between atoms: O_21  and  C_22
   13  A    between atoms: C_26  and  O_27
                            x       y       z     vdW  Elec       q    Type
                         _______ _______ _______ _____ _____    ______ ____

>  <TORSDO>
F 11

>  <SCORE>
-6.648

>  <RMSD_LB>
3.157

>  <RMSD_UB>
4.875

$$$$
CHEMBL1254325
 OpenBabel10172500003D

 29 30  0  0  0  0  0  0  0  0999 V2000
  139.0910  138.3570  147.9160 C   0  0  0  0  0  2  0  0  0  0  0  0
  139.8920  137.1070  147.6740 C   0  0  0  0  0  0  0  0  0  0  0  0
  141.0500  137.0040  148.0690 O   0  0  0  0  0  0  0  0  0  0  0  0
  137.8420  135.9520  146.9710 C   0  0  0  0  0  3  0  0  0  0  0  0
  139.1820  135.9570  147.0410 C   0  0  0  0  0  3  0  0  0  0  0  0
  134.9870  133.5820  146.1600 C   0  0  0  0  0  0  0  0  0  0  0  0
  135.7350  134.5890  146.7780 C   0  0  0  0  0  3  0  0  0  0  0  0
  137.0450  134.8780  146.3630 C   0  0  0  0  0  0  0  0  0  0  0  0
  137.5900  134.1590  145.2910 C   0  0  0  0  0  3  0  0  0  0  0  0
  136.8560  133.1530  144.6640 C   0  0  0  0  0  3  0  0  0  0  0  0
  135.5640  132.8670  145.1020 C   0  0  0  0  0  0  0  0  0  0  0  0
  133.4610  132.9580  147.8810 C   0  0  0  0  0  1  0  0  0  0  0  0
  133.7080  133.2350  146.5090 O   0  0  0  0  0  0  0  0  0  0  0  0
  134.8430  131.8780  144.4880 O   0  0  0  0  0  0  0  0  0  0  0  0
  134.8340  131.0120  144.8470 H   0  0  0  0  0  0  0  0  0  0  0  0
  138.9040  138.7270  149.3660 C   0  0  0  0  0  0  0  0  0  0  0  0
  139.6710  139.4900  149.9520 O   0  0  0  0  0  0  0  0  0  0  0  0
  137.7100  138.1270  150.0840 C   0  0  0  0  0  2  0  0  0  0  0  0
  138.0650  136.7750  150.6890 C   0  0  0  0  0  2  0  0  0  0  0  0
  136.8570  135.9580  151.0630 C   0  0  0  0  0  0  0  0  0  0  0  0
  136.5800  134.7640  150.3940 C   0  0  0  0  0  3  0  0  0  0  0  0
  135.4390  134.0270  150.7140 C   0  0  0  0  0  3  0  0  0  0  0  0
  134.5650  134.4700  151.7130 C   0  0  0  0  0  0  0  0  0  0  0  0
  134.8260  135.6580  152.4030 C   0  0  0  0  0  0  0  0  0  0  0  0
  135.9790  136.3880  152.0700 C   0  0  0  0  0  3  0  0  0  0  0  0
  133.4610  133.7110  151.9850 O   0  0  0  0  0  0  0  0  0  0  0  0
  133.5590  132.8650  152.3750 H   0  0  0  0  0  0  0  0  0  0  0  0
  134.0890  136.2490  153.3940 O   0  0  0  0  0  0  0  0  0  0  0  0
  133.9850  135.5790  154.6420 C   0  0  0  0  0  1  0  0  0  0  0  0
  1 16  1  0  0  0  0
  2  1  1  0  0  0  0
  2  3  2  0  0  0  0
  4  5  2  0  0  0  0
  5  2  1  0  0  0  0
  6 13  1  0  0  0  0
  6  7  1  0  0  0  0
  8  7  2  0  0  0  0
  8  4  1  0  0  0  0
  9  8  1  0  0  0  0
 10 11  1  0  0  0  0
 10  9  2  0  0  0  0
 11  6  2  0  0  0  0
 13 12  1  0  0  0  0
 14 15  1  0  0  0  0
 14 11  1  0  0  0  0
 16 17  2  0  0  0  0
 16 18  1  0  0  0  0
 18 19  1  0  0  0  0
 19 20  1  0  0  0  0
 20 25  1  0  0  0  0
 21 22  1  0  0  0  0
 21 20  2  0  0  0  0
 22 23  2  0  0  0  0
 23 26  1  0  0  0  0
 23 24  1  0  0  0  0
 24 28  1  0  0  0  0
 25 24  2  0  0  0  0
 26 27  1  0  0  0  0
 28 29  1  0  0  0  0
M  END
>  <MODEL>
8

>  <REMARK>
 VINA RESULT:    -6.593      6.222     10.147
 INTER + INTRA:         -11.278
 INTER:                  -9.532
 INTRA:                  -1.745
 UNBOUND:                -0.830
  Name = CHEMBL1254325
  13 active torsions:
  status: ('A' for Active; 'I' for Inactive)
    1  A    between atoms: C_1  and  O_2
    2  A    between atoms: O_2  and  C_3
    3  A    between atoms: C_5  and  C_6
    4  A    between atoms: C_7  and  C_8
    5  A    between atoms: C_8  and  C_10
    6  A    between atoms: C_10  and  C_11
    7  A    between atoms: C_11  and  C_13
    8  A    between atoms: C_13  and  C_14
    9  A    between atoms: C_14  and  C_15
   10  A    between atoms: C_18  and  O_19
   11  A    between atoms: C_20  and  O_21
   12  A    between atoms: O_21  and  C_22
   13  A    between atoms: C_26  and  O_27
                            x       y       z     vdW  Elec       q    Type
                         _______ _______ _______ _____ _____    ______ ____

>  <TORSDO>
F 11

>  <SCORE>
-6.593

>  <RMSD_LB>
6.222

>  <RMSD_UB>
10.147

$$$$
CHEMBL1254325
 OpenBabel10172500003D

 29 30  0  0  0  0  0  0  0  0999 V2000
  139.3770  137.3760  147.5430 C   0  0  0  0  0  2  0  0  0  0  0  0
  139.8880  136.4730  148.6320 C   0  0  0  0  0  0  0  0  0  0  0  0
  140.3450  135.3620  148.3790 O   0  0  0  0  0  0  0  0  0  0  0  0
  141.0830  137.0600  150.6960 C   0  0  0  0  0  3  0  0  0  0  0  0
  139.9260  137.0310  150.0160 C   0  0  0  0  0  3  0  0  0  0  0  0
  140.3290  138.6380  154.0660 C   0  0  0  0  0  0  0  0  0  0  0  0
  140.1640  138.1670  152.7600 C   0  0  0  0  0  3  0  0  0  0  0  0
  141.2350  137.5940  152.0560 C   0  0  0  0  0  0  0  0  0  0  0  0
  142.4770  137.4700  152.6930 C   0  0  0  0  0  3  0  0  0  0  0  0
  142.6560  137.9340  153.9960 C   0  0  0  0  0  3  0  0  0  0  0  0
  141.5860  138.5180  154.6730 C   0  0  0  0  0  0  0  0  0  0  0  0
  138.1470  138.4640  155.0100 C   0  0  0  0  0  1  0  0  0  0  0  0
  139.3390  139.2150  154.8180 O   0  0  0  0  0  0  0  0  0  0  0  0
  141.7610  138.9750  155.9520 O   0  0  0  0  0  0  0  0  0  0  0  0
  141.4950  138.4480  156.6800 H   0  0  0  0  0  0  0  0  0  0  0  0
  138.3520  138.3910  147.9810 C   0  0  0  0  0  0  0  0  0  0  0  0
  138.6660  139.4350  148.5530 O   0  0  0  0  0  0  0  0  0  0  0  0
  136.8980  138.0830  147.6750 C   0  0  0  0  0  2  0  0  0  0  0  0
  136.3200  137.1200  148.7040 C   0  0  0  0  0  2  0  0  0  0  0  0
  135.5160  136.0080  148.0860 C   0  0  0  0  0  0  0  0  0  0  0  0
  135.3680  135.9320  146.6990 C   0  0  0  0  0  3  0  0  0  0  0  0
  134.5900  134.9250  146.1290 C   0  0  0  0  0  3  0  0  0  0  0  0
  133.9580  133.9730  146.9370 C   0  0  0  0  0  0  0  0  0  0  0  0
  134.0990  134.0220  148.3270 C   0  0  0  0  0  0  0  0  0  0  0  0
  134.8860  135.0420  148.8870 C   0  0  0  0  0  3  0  0  0  0  0  0
  133.2060  133.0080  146.3260 O   0  0  0  0  0  0  0  0  0  0  0  0
  133.6070  132.2080  146.0480 H   0  0  0  0  0  0  0  0  0  0  0  0
  133.5540  133.1920  149.2700 O   0  0  0  0  0  0  0  0  0  0  0  0
  132.5190  133.7050  150.0970 C   0  0  0  0  0  1  0  0  0  0  0  0
  1 16  1  0  0  0  0
  1  2  1  0  0  0  0
  2  5  1  0  0  0  0
  3  2  2  0  0  0  0
  4  8  1  0  0  0  0
  5  4  2  0  0  0  0
  6 11  1  0  0  0  0
  6 13  1  0  0  0  0
  7  6  2  0  0  0  0
  8  9  2  0  0  0  0
  8  7  1  0  0  0  0
  9 10  1  0  0  0  0
 10 11  2  0  0  0  0
 11 14  1  0  0  0  0
 13 12  1  0  0  0  0
 14 15  1  0  0  0  0
 16 17  2  0  0  0  0
 18 16  1  0  0  0  0
 18 19  1  0  0  0  0
 20 19  1  0  0  0  0
 20 25  1  0  0  0  0
 21 20  2  0  0  0  0
 22 21  1  0  0  0  0
 22 23  2  0  0  0  0
 23 24  1  0  0  0  0
 24 25  2  0  0  0  0
 24 28  1  0  0  0  0
 26 23  1  0  0  0  0
 27 26  1  0  0  0  0
 28 29  1  0  0  0  0
M  END
>  <MODEL>
9

>  <REMARK>
 VINA RESULT:    -6.563      5.056      7.599
 INTER + INTRA:         -11.230
 INTER:                 -10.400
 INTRA:                  -0.830
 UNBOUND:                -0.830
  Name = CHEMBL1254325
  13 active torsions:
  status: ('A' for Active; 'I' for Inactive)
    1  A    between atoms: C_1  and  O_2
    2  A    between atoms: O_2  and  C_3
    3  A    between atoms: C_5  and  C_6
    4  A    between atoms: C_7  and  C_8
    5  A    between atoms: C_8  and  C_10
    6  A    between atoms: C_10  and  C_11
    7  A    between atoms: C_11  and  C_13
    8  A    between atoms: C_13  and  C_14
    9  A    between atoms: C_14  and  C_15
   10  A    between atoms: C_18  and  O_19
   11  A    between atoms: C_20  and  O_21
   12  A    between atoms: O_21  and  C_22
   13  A    between atoms: C_26  and  O_27
                            x       y       z     vdW  Elec       q    Type
                         _______ _______ _______ _____ _____    ______ ____

>  <TORSDO>
F 11

>  <SCORE>
-6.563

>  <RMSD_LB>
5.056

>  <RMSD_UB>
7.599

$$$$
