CHEMBL206321
 OpenBabel10172500533D

 27 28  0  0  0  0  0  0  0  0999 V2000
  146.4340  138.8360  149.5110 C   0  0  0  0  0  0  0  0  0  0  0  0
  147.1230  138.6160  148.5160 O   0  0  0  0  0  0  0  0  0  0  0  0
  145.9630  140.0990  149.8200 N   0  0  0  0  0  0  0  0  0  0  0  0
  145.3990  140.2430  150.6150 H   0  0  0  0  0  0  0  0  0  0  0  0
  146.0690  137.7290  150.4890 C   0  0  0  0  0  2  0  0  0  0  0  0
  145.5200  138.9050  154.1080 C   0  0  0  0  0  0  0  0  0  0  0  0
  145.2820  138.5790  152.7670 C   0  0  0  0  0  3  0  0  0  0  0  0
  146.2980  138.0520  151.9510 C   0  0  0  0  0  0  0  0  0  0  0  0
  147.5850  137.9090  152.4930 C   0  0  0  0  0  3  0  0  0  0  0  0
  147.8400  138.2410  153.8250 C   0  0  0  0  0  3  0  0  0  0  0  0
  146.8070  138.7280  154.6260 C   0  0  0  0  0  0  0  0  0  0  0  0
  143.2200  139.3260  154.5570 C   0  0  0  0  0  1  0  0  0  0  0  0
  144.5770  139.3980  154.9720 O   0  0  0  0  0  0  0  0  0  0  0  0
  147.0540  139.0470  155.9340 O   0  0  0  0  0  0  0  0  0  0  0  0
  147.7900  138.6740  156.3770 H   0  0  0  0  0  0  0  0  0  0  0  0
  146.3140  141.2110  148.9510 C   0  0  0  0  0  2  0  0  0  0  0  0
  146.5940  142.5260  149.6810 C   0  0  0  0  0  2  0  0  0  0  0  0
  147.0950  142.2630  151.0860 C   0  0  0  0  0  0  0  0  0  0  0  0
  148.4490  141.9620  151.3150 C   0  0  0  0  0  3  0  0  0  0  0  0
  148.9360  141.7730  152.6140 C   0  0  0  0  0  3  0  0  0  0  0  0
  148.0620  141.8860  153.6870 C   0  0  0  0  0  0  0  0  0  0  0  0
  146.7190  142.1840  153.4720 C   0  0  0  0  0  0  0  0  0  0  0  0
  146.2290  142.3760  152.1840 C   0  0  0  0  0  3  0  0  0  0  0  0
  148.4750  141.7200  154.9810 O   0  0  0  0  0  0  0  0  0  0  0  0
  149.1850  141.1400  155.1750 H   0  0  0  0  0  0  0  0  0  0  0  0
  145.8710  142.2990  154.5350 O   0  0  0  0  0  0  0  0  0  0  0  0
  145.2100  141.6500  154.6800 H   0  0  0  0  0  0  0  0  0  0  0  0
  1  3  1  0  0  0  0
  1  5  1  0  0  0  0
  2  1  2  0  0  0  0
  3  4  1  0  0  0  0
  5  8  1  0  0  0  0
  6 11  1  0  0  0  0
  6 13  1  0  0  0  0
  7  6  2  0  0  0  0
  8  9  2  0  0  0  0
  8  7  1  0  0  0  0
  9 10  1  0  0  0  0
 10 11  2  0  0  0  0
 11 14  1  0  0  0  0
 12 13  1  0  0  0  0
 14 15  1  0  0  0  0
 16 17  1  0  0  0  0
 16  3  1  0  0  0  0
 17 18  1  0  0  0  0
 18 19  2  0  0  0  0
 18 23  1  0  0  0  0
 19 20  1  0  0  0  0
 20 21  2  0  0  0  0
 21 24  1  0  0  0  0
 22 21  1  0  0  0  0
 22 26  1  0  0  0  0
 23 22  2  0  0  0  0
 24 25  1  0  0  0  0
 26 27  1  0  0  0  0
M  END
>  <MODEL>
1

>  <REMARK>
 VINA RESULT:    -7.858      0.000      0.000
 INTER + INTRA:         -12.771
 INTER:                 -11.004
 INTRA:                  -1.767
 UNBOUND:                -1.468
  Name = CHEMBL206321
  10 active torsions:
  status: ('A' for Active; 'I' for Inactive)
    1  A    between atoms: C_1  and  O_2
    2  A    between atoms: O_2  and  C_3
    3  A    between atoms: C_5  and  C_6
    4  A    between atoms: C_6  and  C_7
    5  A    between atoms: N_9  and  C_10
    6  A    between atoms: C_10  and  C_11
    7  A    between atoms: C_11  and  C_12
    8  A    between atoms: C_15  and  O_16
    9  A    between atoms: C_17  and  O_18
   10  A    between atoms: C_22  and  O_23
                            x       y       z     vdW  Elec       q    Type
                         _______ _______ _______ _____ _____    ______ ____

>  <TORSDO>
F 9

>  <SCORE>
-7.858

>  <RMSD_LB>
0.000

>  <RMSD_UB>
0.000

$$$$
CHEMBL206321
 OpenBabel10172500533D

 27 28  0  0  0  0  0  0  0  0999 V2000
  145.0790  139.4690  150.1120 C   0  0  0  0  0  0  0  0  0  0  0  0
  144.0160  139.9430  149.7130 O   0  0  0  0  0  0  0  0  0  0  0  0
  146.3030  140.0240  149.7920 N   0  0  0  0  0  0  0  0  0  0  0  0
  147.1380  139.6340  150.1400 H   0  0  0  0  0  0  0  0  0  0  0  0
  145.1190  138.2170  150.9760 C   0  0  0  0  0  2  0  0  0  0  0  0
  147.5140  138.3620  153.9800 C   0  0  0  0  0  0  0  0  0  0  0  0
  147.0280  138.2140  152.6750 C   0  0  0  0  0  3  0  0  0  0  0  0
  145.6690  138.4090  152.3740 C   0  0  0  0  0  0  0  0  0  0  0  0
  144.7860  138.7010  153.4260 C   0  0  0  0  0  3  0  0  0  0  0  0
  145.2540  138.8380  154.7340 C   0  0  0  0  0  3  0  0  0  0  0  0
  146.6130  138.6770  155.0020 C   0  0  0  0  0  0  0  0  0  0  0  0
  149.6480  137.4210  153.5020 C   0  0  0  0  0  1  0  0  0  0  0  0
  148.8270  138.2140  154.3470 O   0  0  0  0  0  0  0  0  0  0  0  0
  147.0750  138.8190  156.2830 O   0  0  0  0  0  0  0  0  0  0  0  0
  147.8970  138.4440  156.5290 H   0  0  0  0  0  0  0  0  0  0  0  0
  146.3380  141.1970  148.9320 C   0  0  0  0  0  2  0  0  0  0  0  0
  146.6030  142.5150  149.6610 C   0  0  0  0  0  2  0  0  0  0  0  0
  147.1040  142.2580  151.0670 C   0  0  0  0  0  0  0  0  0  0  0  0
  148.4660  142.0040  151.3030 C   0  0  0  0  0  3  0  0  0  0  0  0
  148.9510  141.8210  152.6040 C   0  0  0  0  0  3  0  0  0  0  0  0
  148.0660  141.8930  153.6720 C   0  0  0  0  0  0  0  0  0  0  0  0
  146.7150  142.1440  153.4500 C   0  0  0  0  0  0  0  0  0  0  0  0
  146.2270  142.3300  152.1610 C   0  0  0  0  0  3  0  0  0  0  0  0
  148.4770  141.7300  154.9670 O   0  0  0  0  0  0  0  0  0  0  0  0
  148.2540  140.9490  155.4340 H   0  0  0  0  0  0  0  0  0  0  0  0
  145.8560  142.2180  154.5080 O   0  0  0  0  0  0  0  0  0  0  0  0
  145.4610  143.0380  154.7350 H   0  0  0  0  0  0  0  0  0  0  0  0
  1  5  1  0  0  0  0
  2  1  2  0  0  0  0
  3  1  1  0  0  0  0
  3  4  1  0  0  0  0
  5  8  1  0  0  0  0
  6 13  1  0  0  0  0
  6 11  1  0  0  0  0
  7  6  2  0  0  0  0
  8  7  1  0  0  0  0
  8  9  2  0  0  0  0
  9 10  1  0  0  0  0
 10 11  2  0  0  0  0
 11 14  1  0  0  0  0
 12 13  1  0  0  0  0
 14 15  1  0  0  0  0
 16 17  1  0  0  0  0
 16  3  1  0  0  0  0
 17 18  1  0  0  0  0
 18 19  2  0  0  0  0
 18 23  1  0  0  0  0
 19 20  1  0  0  0  0
 20 21  2  0  0  0  0
 21 24  1  0  0  0  0
 22 21  1  0  0  0  0
 22 26  1  0  0  0  0
 23 22  2  0  0  0  0
 24 25  1  0  0  0  0
 26 27  1  0  0  0  0
M  END
>  <MODEL>
2

>  <REMARK>
 VINA RESULT:    -7.691      1.176      2.173
 INTER + INTRA:         -12.531
 INTER:                 -10.976
 INTRA:                  -1.555
 UNBOUND:                -1.468
  Name = CHEMBL206321
  10 active torsions:
  status: ('A' for Active; 'I' for Inactive)
    1  A    between atoms: C_1  and  O_2
    2  A    between atoms: O_2  and  C_3
    3  A    between atoms: C_5  and  C_6
    4  A    between atoms: C_6  and  C_7
    5  A    between atoms: N_9  and  C_10
    6  A    between atoms: C_10  and  C_11
    7  A    between atoms: C_11  and  C_12
    8  A    between atoms: C_15  and  O_16
    9  A    between atoms: C_17  and  O_18
   10  A    between atoms: C_22  and  O_23
                            x       y       z     vdW  Elec       q    Type
                         _______ _______ _______ _____ _____    ______ ____

>  <TORSDO>
F 9

>  <SCORE>
-7.691

>  <RMSD_LB>
1.176

>  <RMSD_UB>
2.173

$$$$
CHEMBL206321
 OpenBabel10172500533D

 27 28  0  0  0  0  0  0  0  0999 V2000
  144.1810  139.2430  149.7450 C   0  0  0  0  0  0  0  0  0  0  0  0
  144.9910  138.3560  149.4820 O   0  0  0  0  0  0  0  0  0  0  0  0
  144.4840  140.5860  149.6130 N   0  0  0  0  0  0  0  0  0  0  0  0
  143.8090  141.2740  149.8150 H   0  0  0  0  0  0  0  0  0  0  0  0
  142.7850  138.9210  150.2570 C   0  0  0  0  0  2  0  0  0  0  0  0
  143.5320  139.2430  154.0150 C   0  0  0  0  0  0  0  0  0  0  0  0
  143.6790  139.2870  152.6240 C   0  0  0  0  0  3  0  0  0  0  0  0
  142.6310  138.9150  151.7640 C   0  0  0  0  0  0  0  0  0  0  0  0
  141.4390  138.4370  152.3310 C   0  0  0  0  0  3  0  0  0  0  0  0
  141.2820  138.3750  153.7170 C   0  0  0  0  0  3  0  0  0  0  0  0
  142.3230  138.7850  154.5500 C   0  0  0  0  0  0  0  0  0  0  0  0
  145.6920  138.8460  154.9340 C   0  0  0  0  0  1  0  0  0  0  0  0
  144.4960  139.6130  154.9160 O   0  0  0  0  0  0  0  0  0  0  0  0
  142.1680  138.7310  155.9090 O   0  0  0  0  0  0  0  0  0  0  0  0
  141.3560  138.4450  156.2770 H   0  0  0  0  0  0  0  0  0  0  0  0
  145.8170  140.9640  149.1710 C   0  0  0  0  0  2  0  0  0  0  0  0
  146.3170  142.3000  149.7240 C   0  0  0  0  0  2  0  0  0  0  0  0
  146.8500  142.1310  151.1320 C   0  0  0  0  0  0  0  0  0  0  0  0
  148.2170  141.8850  151.3520 C   0  0  0  0  0  3  0  0  0  0  0  0
  148.7310  141.7840  152.6510 C   0  0  0  0  0  3  0  0  0  0  0  0
  147.8720  141.9290  153.7310 C   0  0  0  0  0  0  0  0  0  0  0  0
  146.5160  142.1730  153.5250 C   0  0  0  0  0  0  0  0  0  0  0  0
  145.9990  142.2780  152.2380 C   0  0  0  0  0  3  0  0  0  0  0  0
  148.3120  141.8480  155.0250 O   0  0  0  0  0  0  0  0  0  0  0  0
  148.2590  141.0350  155.4870 H   0  0  0  0  0  0  0  0  0  0  0  0
  145.6830  142.3210  154.5960 O   0  0  0  0  0  0  0  0  0  0  0  0
  146.0400  142.4210  155.4570 H   0  0  0  0  0  0  0  0  0  0  0  0
  1  5  1  0  0  0  0
  2  1  2  0  0  0  0
  3  1  1  0  0  0  0
  3  4  1  0  0  0  0
  5  8  1  0  0  0  0
  6 11  1  0  0  0  0
  6 13  1  0  0  0  0
  7  6  2  0  0  0  0
  8  9  2  0  0  0  0
  8  7  1  0  0  0  0
  9 10  1  0  0  0  0
 10 11  2  0  0  0  0
 11 14  1  0  0  0  0
 13 12  1  0  0  0  0
 14 15  1  0  0  0  0
 16  3  1  0  0  0  0
 16 17  1  0  0  0  0
 17 18  1  0  0  0  0
 18 19  2  0  0  0  0
 18 23  1  0  0  0  0
 19 20  1  0  0  0  0
 20 21  2  0  0  0  0
 21 24  1  0  0  0  0
 22 21  1  0  0  0  0
 22 26  1  0  0  0  0
 23 22  2  0  0  0  0
 24 25  1  0  0  0  0
 26 27  1  0  0  0  0
M  END
>  <MODEL>
3

>  <REMARK>
 VINA RESULT:    -7.403      1.634      2.795
 INTER + INTRA:         -12.117
 INTER:                 -10.906
 INTRA:                  -1.211
 UNBOUND:                -1.468
  Name = CHEMBL206321
  10 active torsions:
  status: ('A' for Active; 'I' for Inactive)
    1  A    between atoms: C_1  and  O_2
    2  A    between atoms: O_2  and  C_3
    3  A    between atoms: C_5  and  C_6
    4  A    between atoms: C_6  and  C_7
    5  A    between atoms: N_9  and  C_10
    6  A    between atoms: C_10  and  C_11
    7  A    between atoms: C_11  and  C_12
    8  A    between atoms: C_15  and  O_16
    9  A    between atoms: C_17  and  O_18
   10  A    between atoms: C_22  and  O_23
                            x       y       z     vdW  Elec       q    Type
                         _______ _______ _______ _____ _____    ______ ____

>  <TORSDO>
F 9

>  <SCORE>
-7.403

>  <RMSD_LB>
1.634

>  <RMSD_UB>
2.795

$$$$
CHEMBL206321
 OpenBabel10172500533D

 27 28  0  0  0  0  0  0  0  0999 V2000
  145.2320  139.5820  149.4690 C   0  0  0  0  0  0  0  0  0  0  0  0
  144.2540  139.9960  148.8480 O   0  0  0  0  0  0  0  0  0  0  0  0
  145.2290  138.3660  150.1260 N   0  0  0  0  0  0  0  0  0  0  0  0
  146.0320  138.0510  150.6020 H   0  0  0  0  0  0  0  0  0  0  0  0
  146.5130  140.3950  149.5740 C   0  0  0  0  0  2  0  0  0  0  0  0
  148.1050  140.4550  153.0740 C   0  0  0  0  0  0  0  0  0  0  0  0
  147.7850  140.0670  151.7670 C   0  0  0  0  0  3  0  0  0  0  0  0
  146.9000  140.8200  150.9760 C   0  0  0  0  0  0  0  0  0  0  0  0
  146.2900  141.9490  151.5450 C   0  0  0  0  0  3  0  0  0  0  0  0
  146.5900  142.3410  152.8510 C   0  0  0  0  0  3  0  0  0  0  0  0
  147.4990  141.5980  153.6040 C   0  0  0  0  0  0  0  0  0  0  0  0
  149.2110  138.4160  153.6130 C   0  0  0  0  0  1  0  0  0  0  0  0
  148.9770  139.7880  153.8960 O   0  0  0  0  0  0  0  0  0  0  0  0
  147.8000  141.9860  154.8820 O   0  0  0  0  0  0  0  0  0  0  0  0
  148.4250  142.6670  155.0300 H   0  0  0  0  0  0  0  0  0  0  0  0
  144.0190  137.5580  150.1040 C   0  0  0  0  0  2  0  0  0  0  0  0
  143.1520  137.6730  151.3590 C   0  0  0  0  0  2  0  0  0  0  0  0
  144.0060  137.9710  152.5740 C   0  0  0  0  0  0  0  0  0  0  0  0
  145.0100  137.0730  152.9760 C   0  0  0  0  0  3  0  0  0  0  0  0
  145.8430  137.3640  154.0640 C   0  0  0  0  0  3  0  0  0  0  0  0
  145.6680  138.5580  154.7500 C   0  0  0  0  0  0  0  0  0  0  0  0
  144.6770  139.4540  154.3600 C   0  0  0  0  0  0  0  0  0  0  0  0
  143.8480  139.1740  153.2790 C   0  0  0  0  0  3  0  0  0  0  0  0
  146.4530  138.9050  155.8160 O   0  0  0  0  0  0  0  0  0  0  0  0
  146.2510  139.6700  156.3160 H   0  0  0  0  0  0  0  0  0  0  0  0
  144.5190  140.6280  155.0380 O   0  0  0  0  0  0  0  0  0  0  0  0
  145.2210  141.2480  155.0720 H   0  0  0  0  0  0  0  0  0  0  0  0
  1  5  1  0  0  0  0
  1  3  1  0  0  0  0
  2  1  2  0  0  0  0
  3  4  1  0  0  0  0
  5  8  1  0  0  0  0
  6 11  1  0  0  0  0
  6 13  1  0  0  0  0
  7  6  2  0  0  0  0
  8  9  2  0  0  0  0
  8  7  1  0  0  0  0
  9 10  1  0  0  0  0
 10 11  2  0  0  0  0
 11 14  1  0  0  0  0
 12 13  1  0  0  0  0
 14 15  1  0  0  0  0
 16  3  1  0  0  0  0
 16 17  1  0  0  0  0
 17 18  1  0  0  0  0
 18 19  2  0  0  0  0
 18 23  1  0  0  0  0
 19 20  1  0  0  0  0
 20 21  2  0  0  0  0
 21 24  1  0  0  0  0
 22 21  1  0  0  0  0
 22 26  1  0  0  0  0
 23 22  2  0  0  0  0
 24 25  1  0  0  0  0
 26 27  1  0  0  0  0
M  END
>  <MODEL>
4

>  <REMARK>
 VINA RESULT:    -6.753      1.603      4.129
 INTER + INTRA:         -11.181
 INTER:                  -9.550
 INTRA:                  -1.631
 UNBOUND:                -1.468
  Name = CHEMBL206321
  10 active torsions:
  status: ('A' for Active; 'I' for Inactive)
    1  A    between atoms: C_1  and  O_2
    2  A    between atoms: O_2  and  C_3
    3  A    between atoms: C_5  and  C_6
    4  A    between atoms: C_6  and  C_7
    5  A    between atoms: N_9  and  C_10
    6  A    between atoms: C_10  and  C_11
    7  A    between atoms: C_11  and  C_12
    8  A    between atoms: C_15  and  O_16
    9  A    between atoms: C_17  and  O_18
   10  A    between atoms: C_22  and  O_23
                            x       y       z     vdW  Elec       q    Type
                         _______ _______ _______ _____ _____    ______ ____

>  <TORSDO>
F 9

>  <SCORE>
-6.753

>  <RMSD_LB>
1.603

>  <RMSD_UB>
4.129

$$$$
CHEMBL206321
 OpenBabel10172500533D

 27 28  0  0  0  0  0  0  0  0999 V2000
  134.6760  135.5140  153.3920 C   0  0  0  0  0  0  0  0  0  0  0  0
  134.1130  136.5520  153.7360 O   0  0  0  0  0  0  0  0  0  0  0  0
  134.3090  134.8130  152.2580 N   0  0  0  0  0  0  0  0  0  0  0  0
  134.7890  133.9940  151.9970 H   0  0  0  0  0  0  0  0  0  0  0  0
  135.8100  134.9140  154.2090 C   0  0  0  0  0  2  0  0  0  0  0  0
  137.9200  137.5870  155.9950 C   0  0  0  0  0  0  0  0  0  0  0  0
  137.3690  136.7830  154.9890 C   0  0  0  0  0  3  0  0  0  0  0  0
  136.3900  135.8170  155.2780 C   0  0  0  0  0  0  0  0  0  0  0  0
  136.0100  135.6290  156.6160 C   0  0  0  0  0  3  0  0  0  0  0  0
  136.5600  136.4140  157.6320 C   0  0  0  0  0  3  0  0  0  0  0  0
  137.5030  137.3920  157.3160 C   0  0  0  0  0  0  0  0  0  0  0  0
  139.2390  138.8210  154.4440 C   0  0  0  0  0  1  0  0  0  0  0  0
  138.8580  138.5650  155.7880 O   0  0  0  0  0  0  0  0  0  0  0  0
  138.0380  138.1680  158.3090 O   0  0  0  0  0  0  0  0  0  0  0  0
  138.1930  139.0790  158.1600 H   0  0  0  0  0  0  0  0  0  0  0  0
  133.2010  135.3090  151.4560 C   0  0  0  0  0  2  0  0  0  0  0  0
  132.4250  134.2260  150.7030 C   0  0  0  0  0  2  0  0  0  0  0  0
  133.1700  133.8030  149.4550 C   0  0  0  0  0  0  0  0  0  0  0  0
  133.9420  132.6270  149.4490 C   0  0  0  0  0  3  0  0  0  0  0  0
  134.5890  132.1960  148.2850 C   0  0  0  0  0  3  0  0  0  0  0  0
  134.4630  132.9450  147.1230 C   0  0  0  0  0  0  0  0  0  0  0  0
  133.7010  134.1110  147.1170 C   0  0  0  0  0  0  0  0  0  0  0  0
  133.0520  134.5440  148.2680 C   0  0  0  0  0  3  0  0  0  0  0  0
  135.0640  132.5750  145.9510 O   0  0  0  0  0  0  0  0  0  0  0  0
  134.5860  132.0800  145.3150 H   0  0  0  0  0  0  0  0  0  0  0  0
  133.5790  134.8350  145.9670 O   0  0  0  0  0  0  0  0  0  0  0  0
  134.3450  135.1350  145.5180 H   0  0  0  0  0  0  0  0  0  0  0  0
  1  2  2  0  0  0  0
  1  5  1  0  0  0  0
  3  1  1  0  0  0  0
  4  3  1  0  0  0  0
  5  8  1  0  0  0  0
  6 11  1  0  0  0  0
  7  8  1  0  0  0  0
  7  6  2  0  0  0  0
  8  9  2  0  0  0  0
  9 10  1  0  0  0  0
 11 10  2  0  0  0  0
 11 14  1  0  0  0  0
 12 13  1  0  0  0  0
 13  6  1  0  0  0  0
 15 14  1  0  0  0  0
 16  3  1  0  0  0  0
 17 16  1  0  0  0  0
 18 17  1  0  0  0  0
 19 18  1  0  0  0  0
 20 19  2  0  0  0  0
 21 20  1  0  0  0  0
 22 21  2  0  0  0  0
 22 23  1  0  0  0  0
 23 18  2  0  0  0  0
 24 21  1  0  0  0  0
 25 24  1  0  0  0  0
 26 22  1  0  0  0  0
 27 26  1  0  0  0  0
M  END
>  <MODEL>
5

>  <REMARK>
 VINA RESULT:    -6.726     10.490     13.629
 INTER + INTRA:         -11.143
 INTER:                 -10.703
 INTRA:                  -0.440
 UNBOUND:                -1.468
  Name = CHEMBL206321
  10 active torsions:
  status: ('A' for Active; 'I' for Inactive)
    1  A    between atoms: C_1  and  O_2
    2  A    between atoms: O_2  and  C_3
    3  A    between atoms: C_5  and  C_6
    4  A    between atoms: C_6  and  C_7
    5  A    between atoms: N_9  and  C_10
    6  A    between atoms: C_10  and  C_11
    7  A    between atoms: C_11  and  C_12
    8  A    between atoms: C_15  and  O_16
    9  A    between atoms: C_17  and  O_18
   10  A    between atoms: C_22  and  O_23
                            x       y       z     vdW  Elec       q    Type
                         _______ _______ _______ _____ _____    ______ ____

>  <TORSDO>
F 9

>  <SCORE>
-6.726

>  <RMSD_LB>
10.490

>  <RMSD_UB>
13.629

$$$$
CHEMBL206321
 OpenBabel10172500533D

 27 28  0  0  0  0  0  0  0  0999 V2000
  143.2430  139.7260  149.5010 C   0  0  0  0  0  0  0  0  0  0  0  0
  142.2390  140.3810  149.7810 O   0  0  0  0  0  0  0  0  0  0  0  0
  143.1840  138.3800  149.1900 N   0  0  0  0  0  0  0  0  0  0  0  0
  144.0020  137.8840  148.9530 H   0  0  0  0  0  0  0  0  0  0  0  0
  144.6290  140.3520  149.4990 C   0  0  0  0  0  2  0  0  0  0  0  0
  145.5220  140.4350  153.2380 C   0  0  0  0  0  0  0  0  0  0  0  0
  145.0790  139.9850  151.9890 C   0  0  0  0  0  3  0  0  0  0  0  0
  145.1370  140.8090  150.8510 C   0  0  0  0  0  0  0  0  0  0  0  0
  145.5980  142.1270  151.0020 C   0  0  0  0  0  3  0  0  0  0  0  0
  146.0310  142.5940  152.2450 C   0  0  0  0  0  3  0  0  0  0  0  0
  145.9980  141.7460  153.3520 C   0  0  0  0  0  0  0  0  0  0  0  0
  146.4750  138.6350  154.4720 C   0  0  0  0  0  1  0  0  0  0  0  0
  145.5210  139.6850  154.3850 O   0  0  0  0  0  0  0  0  0  0  0  0
  146.4290  142.2000  154.5700 O   0  0  0  0  0  0  0  0  0  0  0  0
  146.5080  143.1200  154.7250 H   0  0  0  0  0  0  0  0  0  0  0  0
  141.8950  137.7080  149.2180 C   0  0  0  0  0  2  0  0  0  0  0  0
  141.7350  136.6810  150.3410 C   0  0  0  0  0  2  0  0  0  0  0  0
  141.3710  137.3620  151.6430 C   0  0  0  0  0  0  0  0  0  0  0  0
  140.0340  137.6980  151.9230 C   0  0  0  0  0  3  0  0  0  0  0  0
  139.6780  138.2770  153.1470 C   0  0  0  0  0  3  0  0  0  0  0  0
  140.6640  138.5200  154.0930 C   0  0  0  0  0  0  0  0  0  0  0  0
  141.9910  138.1910  153.8270 C   0  0  0  0  0  0  0  0  0  0  0  0
  142.3520  137.6130  152.6150 C   0  0  0  0  0  3  0  0  0  0  0  0
  140.3800  139.0760  155.3110 O   0  0  0  0  0  0  0  0  0  0  0  0
  140.7950  139.8760  155.5680 H   0  0  0  0  0  0  0  0  0  0  0  0
  142.9500  138.4290  154.7680 O   0  0  0  0  0  0  0  0  0  0  0  0
  143.7520  138.8480  154.5240 H   0  0  0  0  0  0  0  0  0  0  0  0
  1  2  2  0  0  0  0
  3 16  1  0  0  0  0
  3  1  1  0  0  0  0
  4  3  1  0  0  0  0
  5  1  1  0  0  0  0
  5  8  1  0  0  0  0
  6 11  1  0  0  0  0
  6 13  1  0  0  0  0
  7  6  2  0  0  0  0
  8  9  2  0  0  0  0
  8  7  1  0  0  0  0
  9 10  1  0  0  0  0
 10 11  2  0  0  0  0
 11 14  1  0  0  0  0
 13 12  1  0  0  0  0
 14 15  1  0  0  0  0
 16 17  1  0  0  0  0
 17 18  1  0  0  0  0
 18 19  2  0  0  0  0
 18 23  1  0  0  0  0
 19 20  1  0  0  0  0
 20 21  2  0  0  0  0
 21 24  1  0  0  0  0
 22 21  1  0  0  0  0
 22 26  1  0  0  0  0
 23 22  2  0  0  0  0
 24 25  1  0  0  0  0
 27 26  1  0  0  0  0
M  END
>  <MODEL>
6

>  <REMARK>
 VINA RESULT:    -6.709      2.946      5.651
 INTER + INTRA:         -11.119
 INTER:                  -9.646
 INTRA:                  -1.473
 UNBOUND:                -1.468
  Name = CHEMBL206321
  10 active torsions:
  status: ('A' for Active; 'I' for Inactive)
    1  A    between atoms: C_1  and  O_2
    2  A    between atoms: O_2  and  C_3
    3  A    between atoms: C_5  and  C_6
    4  A    between atoms: C_6  and  C_7
    5  A    between atoms: N_9  and  C_10
    6  A    between atoms: C_10  and  C_11
    7  A    between atoms: C_11  and  C_12
    8  A    between atoms: C_15  and  O_16
    9  A    between atoms: C_17  and  O_18
   10  A    between atoms: C_22  and  O_23
                            x       y       z     vdW  Elec       q    Type
                         _______ _______ _______ _____ _____    ______ ____

>  <TORSDO>
F 9

>  <SCORE>
-6.709

>  <RMSD_LB>
2.946

>  <RMSD_UB>
5.651

$$$$
CHEMBL206321
 OpenBabel10172500533D

 27 28  0  0  0  0  0  0  0  0999 V2000
  148.7460  140.5820  153.4240 C   0  0  0  0  0  0  0  0  0  0  0  0
  148.9730  141.0410  154.5420 O   0  0  0  0  0  0  0  0  0  0  0  0
  148.7300  139.2230  153.1710 N   0  0  0  0  0  0  0  0  0  0  0  0
  148.5280  138.8820  152.2690 H   0  0  0  0  0  0  0  0  0  0  0  0
  148.4840  141.4860  152.2290 C   0  0  0  0  0  2  0  0  0  0  0  0
  145.9810  140.1820  149.6180 C   0  0  0  0  0  0  0  0  0  0  0  0
  147.1690  140.3990  150.3260 C   0  0  0  0  0  3  0  0  0  0  0  0
  147.2010  141.2100  151.4730 C   0  0  0  0  0  0  0  0  0  0  0  0
  146.0180  141.8540  151.8700 C   0  0  0  0  0  3  0  0  0  0  0  0
  144.8270  141.6570  151.1670 C   0  0  0  0  0  3  0  0  0  0  0  0
  144.8130  140.8180  150.0530 C   0  0  0  0  0  0  0  0  0  0  0  0
  147.0280  138.6820  148.0940 C   0  0  0  0  0  1  0  0  0  0  0  0
  145.8650  139.3860  148.5080 O   0  0  0  0  0  0  0  0  0  0  0  0
  143.6450  140.6180  149.3670 O   0  0  0  0  0  0  0  0  0  0  0  0
  143.0180  139.9980  149.6810 H   0  0  0  0  0  0  0  0  0  0  0  0
  149.0170  138.3030  154.2610 C   0  0  0  0  0  2  0  0  0  0  0  0
  147.8510  137.3920  154.6500 C   0  0  0  0  0  2  0  0  0  0  0  0
  146.5290  138.0200  154.2640 C   0  0  0  0  0  0  0  0  0  0  0  0
  145.8700  137.6270  153.0850 C   0  0  0  0  0  3  0  0  0  0  0  0
  144.6200  138.1590  152.7460 C   0  0  0  0  0  3  0  0  0  0  0  0
  144.0280  139.0880  153.5920 C   0  0  0  0  0  0  0  0  0  0  0  0
  144.6710  139.4840  154.7620 C   0  0  0  0  0  0  0  0  0  0  0  0
  145.9120  138.9580  155.1060 C   0  0  0  0  0  3  0  0  0  0  0  0
  142.8050  139.6400  153.3220 O   0  0  0  0  0  0  0  0  0  0  0  0
  142.1900  139.7760  154.0150 H   0  0  0  0  0  0  0  0  0  0  0  0
  144.0770  140.3930  155.5880 O   0  0  0  0  0  0  0  0  0  0  0  0
  144.5860  140.8420  156.2340 H   0  0  0  0  0  0  0  0  0  0  0  0
  1  2  2  0  0  0  0
  3  1  1  0  0  0  0
  3 16  1  0  0  0  0
  4  3  1  0  0  0  0
  5  1  1  0  0  0  0
  6 11  2  0  0  0  0
  6  7  1  0  0  0  0
  7  8  2  0  0  0  0
  8  9  1  0  0  0  0
  8  5  1  0  0  0  0
 10  9  2  0  0  0  0
 11 10  1  0  0  0  0
 12 13  1  0  0  0  0
 13  6  1  0  0  0  0
 14 15  1  0  0  0  0
 14 11  1  0  0  0  0
 16 17  1  0  0  0  0
 18 17  1  0  0  0  0
 18 23  1  0  0  0  0
 19 18  2  0  0  0  0
 20 19  1  0  0  0  0
 20 21  2  0  0  0  0
 21 22  1  0  0  0  0
 22 23  2  0  0  0  0
 22 26  1  0  0  0  0
 24 21  1  0  0  0  0
 24 25  1  0  0  0  0
 26 27  1  0  0  0  0
M  END
>  <MODEL>
7

>  <REMARK>
 VINA RESULT:    -6.587      1.827      5.440
 INTER + INTRA:         -10.942
 INTER:                  -9.474
 INTRA:                  -1.468
 UNBOUND:                -1.468
  Name = CHEMBL206321
  10 active torsions:
  status: ('A' for Active; 'I' for Inactive)
    1  A    between atoms: C_1  and  O_2
    2  A    between atoms: O_2  and  C_3
    3  A    between atoms: C_5  and  C_6
    4  A    between atoms: C_6  and  C_7
    5  A    between atoms: N_9  and  C_10
    6  A    between atoms: C_10  and  C_11
    7  A    between atoms: C_11  and  C_12
    8  A    between atoms: C_15  and  O_16
    9  A    between atoms: C_17  and  O_18
   10  A    between atoms: C_22  and  O_23
                            x       y       z     vdW  Elec       q    Type
                         _______ _______ _______ _____ _____    ______ ____

>  <TORSDO>
F 9

>  <SCORE>
-6.587

>  <RMSD_LB>
1.827

>  <RMSD_UB>
5.440

$$$$
CHEMBL206321
 OpenBabel10172500533D

 27 28  0  0  0  0  0  0  0  0999 V2000
  147.4400  141.3900  154.1810 C   0  0  0  0  0  0  0  0  0  0  0  0
  148.5520  141.8740  154.3860 O   0  0  0  0  0  0  0  0  0  0  0  0
  147.1260  140.0880  154.5230 N   0  0  0  0  0  0  0  0  0  0  0  0
  146.2220  139.7310  154.3620 H   0  0  0  0  0  0  0  0  0  0  0  0
  146.3330  142.1900  153.5120 C   0  0  0  0  0  2  0  0  0  0  0  0
  144.9490  140.5840  150.3040 C   0  0  0  0  0  0  0  0  0  0  0  0
  145.1420  140.9000  151.6550 C   0  0  0  0  0  3  0  0  0  0  0  0
  146.0840  141.8640  152.0540 C   0  0  0  0  0  0  0  0  0  0  0  0
  146.8780  142.4710  151.0690 C   0  0  0  0  0  3  0  0  0  0  0  0
  146.7060  142.1570  149.7190 C   0  0  0  0  0  3  0  0  0  0  0  0
  145.7400  141.2240  149.3440 C   0  0  0  0  0  0  0  0  0  0  0  0
  142.6720  140.0790  149.8240 C   0  0  0  0  0  1  0  0  0  0  0  0
  144.0350  139.6760  149.8360 O   0  0  0  0  0  0  0  0  0  0  0  0
  145.5640  140.9210  148.0200 O   0  0  0  0  0  0  0  0  0  0  0  0
  145.6360  141.5940  147.3730 H   0  0  0  0  0  0  0  0  0  0  0  0
  148.1540  139.2530  155.1250 C   0  0  0  0  0  2  0  0  0  0  0  0
  148.3160  137.8750  154.4780 C   0  0  0  0  0  2  0  0  0  0  0  0
  147.1270  137.5540  153.5970 C   0  0  0  0  0  0  0  0  0  0  0  0
  145.8780  137.2490  154.1680 C   0  0  0  0  0  3  0  0  0  0  0  0
  144.7580  137.0060  153.3630 C   0  0  0  0  0  3  0  0  0  0  0  0
  144.8900  137.0680  151.9830 C   0  0  0  0  0  0  0  0  0  0  0  0
  146.1220  137.3700  151.4070 C   0  0  0  0  0  0  0  0  0  0  0  0
  147.2380  137.6160  152.1990 C   0  0  0  0  0  3  0  0  0  0  0  0
  143.8330  136.8480  151.1420 O   0  0  0  0  0  0  0  0  0  0  0  0
  143.8650  137.1600  150.2590 H   0  0  0  0  0  0  0  0  0  0  0  0
  146.2370  137.4350  150.0490 O   0  0  0  0  0  0  0  0  0  0  0  0
  146.7140  136.7730  149.5870 H   0  0  0  0  0  0  0  0  0  0  0  0
  1  2  2  0  0  0  0
  1  3  1  0  0  0  0
  3 16  1  0  0  0  0
  4  3  1  0  0  0  0
  5  1  1  0  0  0  0
  6  7  1  0  0  0  0
  7  8  2  0  0  0  0
  8  5  1  0  0  0  0
  9  8  1  0  0  0  0
 10  9  2  0  0  0  0
 11 10  1  0  0  0  0
 11  6  2  0  0  0  0
 12 13  1  0  0  0  0
 13  6  1  0  0  0  0
 14 11  1  0  0  0  0
 15 14  1  0  0  0  0
 17 16  1  0  0  0  0
 18 19  1  0  0  0  0
 18 17  1  0  0  0  0
 20 19  2  0  0  0  0
 21 20  1  0  0  0  0
 22 21  2  0  0  0  0
 22 23  1  0  0  0  0
 23 18  2  0  0  0  0
 24 21  1  0  0  0  0
 25 24  1  0  0  0  0
 26 22  1  0  0  0  0
 27 26  1  0  0  0  0
M  END
>  <MODEL>
8

>  <REMARK>
 VINA RESULT:    -6.543      2.176      5.782
 INTER + INTRA:         -10.879
 INTER:                  -9.499
 INTRA:                  -1.381
 UNBOUND:                -1.468
  Name = CHEMBL206321
  10 active torsions:
  status: ('A' for Active; 'I' for Inactive)
    1  A    between atoms: C_1  and  O_2
    2  A    between atoms: O_2  and  C_3
    3  A    between atoms: C_5  and  C_6
    4  A    between atoms: C_6  and  C_7
    5  A    between atoms: N_9  and  C_10
    6  A    between atoms: C_10  and  C_11
    7  A    between atoms: C_11  and  C_12
    8  A    between atoms: C_15  and  O_16
    9  A    between atoms: C_17  and  O_18
   10  A    between atoms: C_22  and  O_23
                            x       y       z     vdW  Elec       q    Type
                         _______ _______ _______ _____ _____    ______ ____

>  <TORSDO>
F 9

>  <SCORE>
-6.543

>  <RMSD_LB>
2.176

>  <RMSD_UB>
5.782

$$$$
CHEMBL206321
 OpenBabel10172500533D

 27 28  0  0  0  0  0  0  0  0999 V2000
  146.4760  138.6260  149.3090 C   0  0  0  0  0  0  0  0  0  0  0  0
  147.0880  138.4710  148.2530 O   0  0  0  0  0  0  0  0  0  0  0  0
  146.0330  139.8660  149.7320 N   0  0  0  0  0  0  0  0  0  0  0  0
  145.5300  139.9590  150.5740 H   0  0  0  0  0  0  0  0  0  0  0  0
  146.1810  137.4590  150.2380 C   0  0  0  0  0  2  0  0  0  0  0  0
  142.3560  137.1170  150.4380 C   0  0  0  0  0  0  0  0  0  0  0  0
  143.6620  137.1390  149.9360 C   0  0  0  0  0  3  0  0  0  0  0  0
  144.7640  137.3940  150.7710 C   0  0  0  0  0  0  0  0  0  0  0  0
  144.5240  137.6880  152.1220 C   0  0  0  0  0  3  0  0  0  0  0  0
  143.2250  137.6830  152.6350 C   0  0  0  0  0  3  0  0  0  0  0  0
  142.1520  137.3910  151.7940 C   0  0  0  0  0  0  0  0  0  0  0  0
  141.0290  137.6440  148.5320 C   0  0  0  0  0  1  0  0  0  0  0  0
  141.2360  136.8520  149.6930 O   0  0  0  0  0  0  0  0  0  0  0  0
  140.8780  137.3780  152.2970 O   0  0  0  0  0  0  0  0  0  0  0  0
  140.2630  136.7370  151.9990 H   0  0  0  0  0  0  0  0  0  0  0  0
  146.3230  141.0320  148.9120 C   0  0  0  0  0  2  0  0  0  0  0  0
  146.3540  142.3570  149.6750 C   0  0  0  0  0  2  0  0  0  0  0  0
  146.9200  142.1610  151.0660 C   0  0  0  0  0  0  0  0  0  0  0  0
  148.2950  141.9260  151.2490 C   0  0  0  0  0  3  0  0  0  0  0  0
  148.8390  141.8000  152.5330 C   0  0  0  0  0  3  0  0  0  0  0  0
  148.0030  141.9080  153.6360 C   0  0  0  0  0  0  0  0  0  0  0  0
  146.6410  142.1400  153.4670 C   0  0  0  0  0  0  0  0  0  0  0  0
  146.0930  142.2700  152.1950 C   0  0  0  0  0  3  0  0  0  0  0  0
  148.4740  141.8000  154.9170 O   0  0  0  0  0  0  0  0  0  0  0  0
  149.3190  142.1400  155.1350 H   0  0  0  0  0  0  0  0  0  0  0  0
  145.8300  142.2500  154.5590 O   0  0  0  0  0  0  0  0  0  0  0  0
  145.8400  141.5850  155.2190 H   0  0  0  0  0  0  0  0  0  0  0  0
  1  3  1  0  0  0  0
  1  5  1  0  0  0  0
  2  1  2  0  0  0  0
  3  4  1  0  0  0  0
  5  8  1  0  0  0  0
  6 11  1  0  0  0  0
  7  6  2  0  0  0  0
  7  8  1  0  0  0  0
  8  9  2  0  0  0  0
  9 10  1  0  0  0  0
 11 14  1  0  0  0  0
 11 10  2  0  0  0  0
 12 13  1  0  0  0  0
 13  6  1  0  0  0  0
 15 14  1  0  0  0  0
 16 17  1  0  0  0  0
 16  3  1  0  0  0  0
 17 18  1  0  0  0  0
 18 19  2  0  0  0  0
 18 23  1  0  0  0  0
 19 20  1  0  0  0  0
 20 21  2  0  0  0  0
 21 24  1  0  0  0  0
 22 21  1  0  0  0  0
 22 26  1  0  0  0  0
 23 22  2  0  0  0  0
 24 25  1  0  0  0  0
 26 27  1  0  0  0  0
M  END
>  <MODEL>
9

>  <REMARK>
 VINA RESULT:    -6.484      2.427      3.309
 INTER + INTRA:         -10.794
 INTER:                 -10.117
 INTRA:                  -0.678
 UNBOUND:                -1.468
  Name = CHEMBL206321
  10 active torsions:
  status: ('A' for Active; 'I' for Inactive)
    1  A    between atoms: C_1  and  O_2
    2  A    between atoms: O_2  and  C_3
    3  A    between atoms: C_5  and  C_6
    4  A    between atoms: C_6  and  C_7
    5  A    between atoms: N_9  and  C_10
    6  A    between atoms: C_10  and  C_11
    7  A    between atoms: C_11  and  C_12
    8  A    between atoms: C_15  and  O_16
    9  A    between atoms: C_17  and  O_18
   10  A    between atoms: C_22  and  O_23
                            x       y       z     vdW  Elec       q    Type
                         _______ _______ _______ _____ _____    ______ ____

>  <TORSDO>
F 9

>  <SCORE>
-6.484

>  <RMSD_LB>
2.427

>  <RMSD_UB>
3.309

$$$$
