CHEMBL173755
 OpenBabel10172500413D

 33 33  0  0  1  0  0  0  0  0999 V2000
  143.5010  137.7400  152.7090 C   0  0  0  0  0  0  0  0  0  0  0  0
  142.4480  137.3810  151.8710 C   0  0  0  0  0  3  0  0  0  0  0  0
  141.1430  137.7460  152.1570 C   0  0  0  0  0  3  0  0  0  0  0  0
  140.8460  138.4960  153.3010 C   0  0  0  0  0  0  0  0  0  0  0  0
  141.8820  138.8560  154.1760 C   0  0  0  0  0  0  0  0  0  0  0  0
  143.2110  138.5260  153.8440 C   0  0  0  0  0  3  0  0  0  0  0  0
  141.7370  139.5360  155.3660 O   0  0  0  0  0  0  0  0  0  0  0  0
  142.9400  140.0380  155.9540 C   0  0  0  0  0  1  0  0  0  0  0  0
  139.5870  138.9260  153.5880 O   0  0  0  0  0  0  0  0  0  0  0  0
  138.5640  137.9500  153.7960 C   0  0  0  0  0  2  0  0  0  0  0  0
  138.0490  138.1510  155.2220 C   0  0  1  0  0  3  0  0  0  0  0  0
  136.9680  139.0930  155.2230 O   0  0  0  0  0  0  0  0  0  0  0  0
  136.4550  138.9980  154.4050 H   0  0  0  0  0  0  0  0  0  0  0  0
  137.5710  136.8230  155.8200 C   0  0  0  0  0  2  0  0  0  0  0  0
  137.5610  136.8280  157.3520 C   0  0  1  0  0  3  0  0  0  0  0  0
  137.6720  138.1700  157.8270 O   0  0  0  0  0  0  0  0  0  0  0  0
  138.6030  138.3690  158.0170 H   0  0  0  0  0  0  0  0  0  0  0  0
  136.2900  136.1620  157.8860 C   0  0  0  0  0  2  0  0  0  0  0  0
  136.4870  135.6220  159.1880 O   0  0  0  0  0  0  0  0  0  0  0  0
  137.3550  135.1920  159.2320 H   0  0  0  0  0  0  0  0  0  0  0  0
  144.8910  137.2250  152.4340 C   0  0  0  0  0  2  0  0  0  0  0  0
  147.2030  138.0370  152.6060 C   0  0  0  0  0  0  0  0  0  0  0  0
  147.5510  137.4880  151.5810 O   0  0  0  0  0  0  0  0  0  0  0  0
  145.9130  137.9920  153.1030 N   0  0  0  0  0  0  0  0  0  0  0  0
  145.6900  138.4900  153.9230 H   0  0  0  0  0  0  0  0  0  0  0  0
  148.1580  138.8680  153.4460 C   0  0  0  0  0  2  0  0  0  0  0  0
  147.3860  139.8820  154.2800 C   0  0  0  0  0  2  0  0  0  0  0  0
  148.0130  141.2690  154.2290 C   0  0  0  0  0  2  0  0  0  0  0  0
  147.6230  141.9700  152.9300 C   0  0  0  0  0  2  0  0  0  0  0  0
  146.1450  142.3420  152.9380 C   0  0  0  0  0  2  0  0  0  0  0  0
  145.5510  142.2100  151.5420 C   0  0  0  0  0  2  0  0  0  0  0  0
  145.6300  140.2000  150.0570 C   0  0  0  0  0  1  0  0  0  0  0  0
  146.4330  141.3380  150.6580 C   0  0  0  0  0  2  0  0  0  0  0  0
  1  6  1  0  0  0  0
  2  3  1  0  0  0  0
  2  1  2  0  0  0  0
  3  4  2  0  0  0  0
  4  9  1  0  0  0  0
  4  5  1  0  0  0  0
  5  7  1  0  0  0  0
  6  5  2  0  0  0  0
  7  8  1  0  0  0  0
  9 10  1  0  0  0  0
 11 10  1  6  0  0  0
 11 12  1  0  0  0  0
 11 14  1  0  0  0  0
 13 12  1  0  0  0  0
 15 14  1  6  0  0  0
 15 16  1  0  0  0  0
 15 18  1  0  0  0  0
 16 17  1  0  0  0  0
 18 19  1  0  0  0  0
 19 20  1  0  0  0  0
 21  1  1  0  0  0  0
 21 24  1  0  0  0  0
 22 24  1  0  0  0  0
 22 26  1  0  0  0  0
 23 22  2  0  0  0  0
 24 25  1  0  0  0  0
 26 27  1  0  0  0  0
 28 27  1  0  0  0  0
 29 30  1  0  0  0  0
 29 28  1  0  0  0  0
 31 30  1  0  0  0  0
 32 33  1  0  0  0  0
 33 31  1  0  0  0  0
M  END
>  <MODEL>
1

>  <REMARK>
 VINA RESULT:    -6.376      0.000      0.000
 INTER + INTRA:         -14.967
 INTER:                 -12.878
 INTRA:                  -2.089
 UNBOUND:                -2.068
  Name = CHEMBL173755
  21 active torsions:
  status: ('A' for Active; 'I' for Inactive)
    1  A    between atoms: C_1  and  C_2
    2  A    between atoms: C_2  and  C_3
    3  A    between atoms: C_3  and  C_4
    4  A    between atoms: C_4  and  C_5
    5  A    between atoms: C_5  and  C_6
    6  A    between atoms: C_6  and  C_7
    7  A    between atoms: C_7  and  C_8
    8  A    between atoms: C_8  and  C_9
    9  A    between atoms: N_11  and  C_12
   10  A    between atoms: C_12  and  C_13
   11  A    between atoms: C_16  and  O_17
   12  A    between atoms: O_17  and  C_18
   13  A    between atoms: C_18  and  C_19
   14  A    between atoms: C_19  and  O_20
   15  A    between atoms: C_19  and  C_21
   16  A    between atoms: C_21  and  C_22
   17  A    between atoms: C_22  and  O_23
   18  A    between atoms: C_22  and  C_24
   19  A    between atoms: C_24  and  O_25
   20  A    between atoms: C_26  and  O_27
   21  A    between atoms: O_27  and  C_28
                            x       y       z     vdW  Elec       q    Type
                         _______ _______ _______ _____ _____    ______ ____

>  <TORSDO>
F 19

>  <SCORE>
-6.376

>  <RMSD_LB>
0.000

>  <RMSD_UB>
0.000

$$$$
CHEMBL173755
 OpenBabel10172500413D

 33 33  0  0  1  0  0  0  0  0999 V2000
  141.4250  137.3570  151.1100 C   0  0  0  0  0  0  0  0  0  0  0  0
  141.8310  137.7120  152.3940 C   0  0  0  0  0  3  0  0  0  0  0  0
  140.9110  138.0240  153.3810 C   0  0  0  0  0  3  0  0  0  0  0  0
  139.5370  137.9840  153.1140 C   0  0  0  0  0  0  0  0  0  0  0  0
  139.0960  137.6500  151.8240 C   0  0  0  0  0  0  0  0  0  0  0  0
  140.0410  137.2810  150.8460 C   0  0  0  0  0  3  0  0  0  0  0  0
  137.7860  137.6290  151.3970 O   0  0  0  0  0  0  0  0  0  0  0  0
  137.5700  137.9260  150.0150 C   0  0  0  0  0  1  0  0  0  0  0  0
  138.5980  138.2250  154.0700 O   0  0  0  0  0  0  0  0  0  0  0  0
  138.9060  137.8960  155.4260 C   0  0  0  0  0  2  0  0  0  0  0  0
  137.5760  137.5840  156.1140 C   0  0  1  0  0  3  0  0  0  0  0  0
  136.5980  138.5700  155.7570 O   0  0  0  0  0  0  0  0  0  0  0  0
  135.7630  138.3760  156.2120 H   0  0  0  0  0  0  0  0  0  0  0  0
  137.0690  136.1930  155.7160 C   0  0  0  0  0  2  0  0  0  0  0  0
  135.7720  136.2420  154.9020 C   0  0  1  0  0  3  0  0  0  0  0  0
  136.0670  136.5980  153.5510 O   0  0  0  0  0  0  0  0  0  0  0  0
  136.4210  135.8250  153.0830 H   0  0  0  0  0  0  0  0  0  0  0  0
  135.0440  134.8960  154.9670 C   0  0  0  0  0  2  0  0  0  0  0  0
  133.6420  135.0480  154.7680 O   0  0  0  0  0  0  0  0  0  0  0  0
  133.3020  134.2860  154.2720 H   0  0  0  0  0  0  0  0  0  0  0  0
  142.4520  137.1420  150.0290 C   0  0  0  0  0  2  0  0  0  0  0  0
  144.8460  137.5260  150.4270 C   0  0  0  0  0  0  0  0  0  0  0  0
  145.0930  136.3430  150.5380 O   0  0  0  0  0  0  0  0  0  0  0  0
  143.5860  138.0260  150.1530 N   0  0  0  0  0  0  0  0  0  0  0  0
  143.4610  138.9970  150.0410 H   0  0  0  0  0  0  0  0  0  0  0  0
  145.9190  138.5950  150.5510 C   0  0  0  0  0  2  0  0  0  0  0  0
  145.3540  139.8380  151.2240 C   0  0  0  0  0  2  0  0  0  0  0  0
  145.4030  141.0600  150.3160 C   0  0  0  0  0  2  0  0  0  0  0  0
  146.8490  141.3640  149.9290 C   0  0  0  0  0  2  0  0  0  0  0  0
  147.4290  142.4550  150.8210 C   0  0  0  0  0  2  0  0  0  0  0  0
  148.7030  141.9700  151.5010 C   0  0  0  0  0  2  0  0  0  0  0  0
  147.6050  141.8980  153.7460 C   0  0  0  0  0  1  0  0  0  0  0  0
  148.3750  141.1020  152.7090 C   0  0  0  0  0  2  0  0  0  0  0  0
  1  2  1  0  0  0  0
  2  3  2  0  0  0  0
  4  3  1  0  0  0  0
  4  9  1  0  0  0  0
  5  4  2  0  0  0  0
  6  1  2  0  0  0  0
  6  5  1  0  0  0  0
  7  5  1  0  0  0  0
  8  7  1  0  0  0  0
  9 10  1  0  0  0  0
 11 10  1  6  0  0  0
 12 11  1  0  0  0  0
 12 13  1  0  0  0  0
 14 11  1  0  0  0  0
 15 18  1  6  0  0  0
 15 14  1  0  0  0  0
 16 15  1  0  0  0  0
 17 16  1  0  0  0  0
 19 18  1  0  0  0  0
 20 19  1  0  0  0  0
 21 24  1  0  0  0  0
 21  1  1  0  0  0  0
 22 23  2  0  0  0  0
 22 26  1  0  0  0  0
 24 22  1  0  0  0  0
 25 24  1  0  0  0  0
 26 27  1  0  0  0  0
 28 27  1  0  0  0  0
 29 28  1  0  0  0  0
 29 30  1  0  0  0  0
 30 31  1  0  0  0  0
 31 33  1  0  0  0  0
 33 32  1  0  0  0  0
M  END
>  <MODEL>
2

>  <REMARK>
 VINA RESULT:    -6.241      2.172      3.613
 INTER + INTRA:         -14.695
 INTER:                 -12.424
 INTRA:                  -2.271
 UNBOUND:                -2.068
  Name = CHEMBL173755
  21 active torsions:
  status: ('A' for Active; 'I' for Inactive)
    1  A    between atoms: C_1  and  C_2
    2  A    between atoms: C_2  and  C_3
    3  A    between atoms: C_3  and  C_4
    4  A    between atoms: C_4  and  C_5
    5  A    between atoms: C_5  and  C_6
    6  A    between atoms: C_6  and  C_7
    7  A    between atoms: C_7  and  C_8
    8  A    between atoms: C_8  and  C_9
    9  A    between atoms: N_11  and  C_12
   10  A    between atoms: C_12  and  C_13
   11  A    between atoms: C_16  and  O_17
   12  A    between atoms: O_17  and  C_18
   13  A    between atoms: C_18  and  C_19
   14  A    between atoms: C_19  and  O_20
   15  A    between atoms: C_19  and  C_21
   16  A    between atoms: C_21  and  C_22
   17  A    between atoms: C_22  and  O_23
   18  A    between atoms: C_22  and  C_24
   19  A    between atoms: C_24  and  O_25
   20  A    between atoms: C_26  and  O_27
   21  A    between atoms: O_27  and  C_28
                            x       y       z     vdW  Elec       q    Type
                         _______ _______ _______ _____ _____    ______ ____

>  <TORSDO>
F 19

>  <SCORE>
-6.241

>  <RMSD_LB>
2.172

>  <RMSD_UB>
3.613

$$$$
CHEMBL173755
 OpenBabel10172500413D

 33 33  0  0  1  0  0  0  0  0999 V2000
  140.0100  137.9980  152.2980 C   0  0  0  0  0  0  0  0  0  0  0  0
  138.7940  137.5230  151.8110 C   0  0  0  0  0  3  0  0  0  0  0  0
  137.7190  137.2930  152.6550 C   0  0  0  0  0  3  0  0  0  0  0  0
  137.8260  137.5410  154.0290 C   0  0  0  0  0  0  0  0  0  0  0  0
  139.0440  138.0000  154.5540 C   0  0  0  0  0  0  0  0  0  0  0  0
  140.1100  138.2820  153.6760 C   0  0  0  0  0  3  0  0  0  0  0  0
  139.3170  138.2290  155.8850 O   0  0  0  0  0  0  0  0  0  0  0  0
  140.5820  137.7580  156.3570 C   0  0  0  0  0  1  0  0  0  0  0  0
  136.7780  137.3860  154.8840 O   0  0  0  0  0  0  0  0  0  0  0  0
  136.3250  136.0630  155.1750 C   0  0  0  0  0  2  0  0  0  0  0  0
  135.8850  136.0610  156.6390 C   0  0  1  0  0  3  0  0  0  0  0  0
  135.1070  134.8880  156.9150 O   0  0  0  0  0  0  0  0  0  0  0  0
  134.2660  134.9380  156.4350 H   0  0  0  0  0  0  0  0  0  0  0  0
  137.1000  136.1000  157.5730 C   0  0  0  0  0  2  0  0  0  0  0  0
  137.1810  137.3930  158.3920 C   0  0  1  0  0  3  0  0  0  0  0  0
  136.7020  138.4870  157.6080 O   0  0  0  0  0  0  0  0  0  0  0  0
  137.2290  138.5580  156.7970 H   0  0  0  0  0  0  0  0  0  0  0  0
  136.3840  137.2600  159.6920 C   0  0  0  0  0  2  0  0  0  0  0  0
  135.4130  138.2930  159.8210 O   0  0  0  0  0  0  0  0  0  0  0  0
  135.3150  138.5290  160.7570 H   0  0  0  0  0  0  0  0  0  0  0  0
  141.1930  138.1210  151.3740 C   0  0  0  0  0  2  0  0  0  0  0  0
  143.5710  138.1830  151.9890 C   0  0  0  0  0  0  0  0  0  0  0  0
  143.8160  137.1270  151.4450 O   0  0  0  0  0  0  0  0  0  0  0  0
  142.3200  138.7740  151.9940 N   0  0  0  0  0  0  0  0  0  0  0  0
  142.1980  139.6520  152.4250 H   0  0  0  0  0  0  0  0  0  0  0  0
  144.6380  138.9930  152.7070 C   0  0  0  0  0  2  0  0  0  0  0  0
  144.3940  138.9750  154.2100 C   0  0  0  0  0  2  0  0  0  0  0  0
  145.6220  139.4100  155.0000 C   0  0  0  0  0  2  0  0  0  0  0  0
  146.8910  139.0430  154.2340 C   0  0  0  0  0  2  0  0  0  0  0  0
  147.9320  140.1490  154.3500 C   0  0  0  0  0  2  0  0  0  0  0  0
  147.2790  141.5170  154.1990 C   0  0  0  0  0  2  0  0  0  0  0  0
  145.9830  142.3660  152.2360 C   0  0  0  0  0  1  0  0  0  0  0  0
  147.3600  141.9990  152.7560 C   0  0  0  0  0  2  0  0  0  0  0  0
  1  6  1  0  0  0  0
  2  1  2  0  0  0  0
  2  3  1  0  0  0  0
  3  4  2  0  0  0  0
  4  5  1  0  0  0  0
  4  9  1  0  0  0  0
  5  7  1  0  0  0  0
  6  5  2  0  0  0  0
  7  8  1  0  0  0  0
  9 10  1  0  0  0  0
 11 10  1  6  0  0  0
 11 12  1  0  0  0  0
 11 14  1  0  0  0  0
 13 12  1  0  0  0  0
 15 14  1  6  0  0  0
 15 18  1  0  0  0  0
 16 15  1  0  0  0  0
 17 16  1  0  0  0  0
 18 19  1  0  0  0  0
 19 20  1  0  0  0  0
 21 24  1  0  0  0  0
 21  1  1  0  0  0  0
 22 24  1  0  0  0  0
 22 26  1  0  0  0  0
 23 22  2  0  0  0  0
 24 25  1  0  0  0  0
 26 27  1  0  0  0  0
 27 28  1  0  0  0  0
 29 30  1  0  0  0  0
 29 28  1  0  0  0  0
 31 30  1  0  0  0  0
 32 33  1  0  0  0  0
 33 31  1  0  0  0  0
M  END
>  <MODEL>
3

>  <REMARK>
 VINA RESULT:    -6.239      1.865      3.217
 INTER + INTRA:         -14.691
 INTER:                 -12.488
 INTRA:                  -2.203
 UNBOUND:                -2.068
  Name = CHEMBL173755
  21 active torsions:
  status: ('A' for Active; 'I' for Inactive)
    1  A    between atoms: C_1  and  C_2
    2  A    between atoms: C_2  and  C_3
    3  A    between atoms: C_3  and  C_4
    4  A    between atoms: C_4  and  C_5
    5  A    between atoms: C_5  and  C_6
    6  A    between atoms: C_6  and  C_7
    7  A    between atoms: C_7  and  C_8
    8  A    between atoms: C_8  and  C_9
    9  A    between atoms: N_11  and  C_12
   10  A    between atoms: C_12  and  C_13
   11  A    between atoms: C_16  and  O_17
   12  A    between atoms: O_17  and  C_18
   13  A    between atoms: C_18  and  C_19
   14  A    between atoms: C_19  and  O_20
   15  A    between atoms: C_19  and  C_21
   16  A    between atoms: C_21  and  C_22
   17  A    between atoms: C_22  and  O_23
   18  A    between atoms: C_22  and  C_24
   19  A    between atoms: C_24  and  O_25
   20  A    between atoms: C_26  and  O_27
   21  A    between atoms: O_27  and  C_28
                            x       y       z     vdW  Elec       q    Type
                         _______ _______ _______ _____ _____    ______ ____

>  <TORSDO>
F 19

>  <SCORE>
-6.239

>  <RMSD_LB>
1.865

>  <RMSD_UB>
3.217

$$$$
CHEMBL173755
 OpenBabel10172500413D

 33 33  0  0  1  0  0  0  0  0999 V2000
  135.0240  135.3150  153.2990 C   0  0  0  0  0  0  0  0  0  0  0  0
  135.9190  134.4310  152.6990 C   0  0  0  0  0  3  0  0  0  0  0  0
  135.7670  134.0360  151.3800 C   0  0  0  0  0  3  0  0  0  0  0  0
  134.7070  134.5250  150.6070 C   0  0  0  0  0  0  0  0  0  0  0  0
  133.7770  135.4010  151.1870 C   0  0  0  0  0  0  0  0  0  0  0  0
  133.9760  135.8370  152.5130 C   0  0  0  0  0  3  0  0  0  0  0  0
  132.6550  135.9130  150.5740 O   0  0  0  0  0  0  0  0  0  0  0  0
  132.8780  136.9560  149.6220 C   0  0  0  0  0  1  0  0  0  0  0  0
  134.5550  134.2110  149.2910 O   0  0  0  0  0  0  0  0  0  0  0  0
  133.7010  133.1180  148.9450 C   0  0  0  0  0  2  0  0  0  0  0  0
  133.2650  133.3430  147.4970 C   0  0  1  0  0  3  0  0  0  0  0  0
  131.8390  133.4830  147.4320 O   0  0  0  0  0  0  0  0  0  0  0  0
  131.4600  133.3420  148.3140 H   0  0  0  0  0  0  0  0  0  0  0  0
  133.9280  134.5980  146.9170 C   0  0  0  0  0  2  0  0  0  0  0  0
  135.0940  134.2750  145.9760 C   0  0  1  0  0  3  0  0  0  0  0  0
  136.2720  134.0210  146.7420 O   0  0  0  0  0  0  0  0  0  0  0  0
  136.3400  134.6760  147.4540 H   0  0  0  0  0  0  0  0  0  0  0  0
  134.7520  133.0780  145.0840 C   0  0  0  0  0  2  0  0  0  0  0  0
  135.6010  131.9670  145.3480 O   0  0  0  0  0  0  0  0  0  0  0  0
  135.9810  131.6450  144.5150 H   0  0  0  0  0  0  0  0  0  0  0  0
  135.1480  135.6280  154.7680 C   0  0  0  0  0  2  0  0  0  0  0  0
  136.9690  137.0610  155.5820 C   0  0  0  0  0  0  0  0  0  0  0  0
  136.2640  138.0470  155.6490 O   0  0  0  0  0  0  0  0  0  0  0  0
  136.5160  135.8170  155.1840 N   0  0  0  0  0  0  0  0  0  0  0  0
  137.1350  135.0500  155.1870 H   0  0  0  0  0  0  0  0  0  0  0  0
  138.4400  137.0890  155.9630 C   0  0  0  0  0  2  0  0  0  0  0  0
  139.1230  138.3070  155.3550 C   0  0  0  0  0  2  0  0  0  0  0  0
  140.1820  137.9240  154.3310 C   0  0  0  0  0  2  0  0  0  0  0  0
  139.9400  138.6770  153.0240 C   0  0  0  0  0  2  0  0  0  0  0  0
  139.4800  137.7230  151.9280 C   0  0  0  0  0  2  0  0  0  0  0  0
  137.9910  137.4290  152.0630 C   0  0  0  0  0  2  0  0  0  0  0  0
  138.1940  136.4660  149.7640 C   0  0  0  0  0  1  0  0  0  0  0  0
  137.3380  137.3070  150.6920 C   0  0  0  0  0  2  0  0  0  0  0  0
  1 21  1  0  0  0  0
  2  1  1  0  0  0  0
  3  2  2  0  0  0  0
  4  5  2  0  0  0  0
  4  3  1  0  0  0  0
  5  6  1  0  0  0  0
  6  1  2  0  0  0  0
  7  5  1  0  0  0  0
  8  7  1  0  0  0  0
  9  4  1  0  0  0  0
 10  9  1  0  0  0  0
 11 14  1  1  0  0  0
 11 10  1  0  0  0  0
 12 11  1  0  0  0  0
 12 13  1  0  0  0  0
 15 18  1  1  0  0  0
 15 16  1  0  0  0  0
 15 14  1  0  0  0  0
 16 17  1  0  0  0  0
 18 19  1  0  0  0  0
 20 19  1  0  0  0  0
 21 24  1  0  0  0  0
 22 23  2  0  0  0  0
 22 26  1  0  0  0  0
 24 25  1  0  0  0  0
 24 22  1  0  0  0  0
 27 26  1  0  0  0  0
 28 27  1  0  0  0  0
 29 28  1  0  0  0  0
 30 31  1  0  0  0  0
 30 29  1  0  0  0  0
 32 33  1  0  0  0  0
 33 31  1  0  0  0  0
M  END
>  <MODEL>
4

>  <REMARK>
 VINA RESULT:    -6.204      6.550     10.001
 INTER + INTRA:         -14.619
 INTER:                 -12.271
 INTRA:                  -2.347
 UNBOUND:                -2.068
  Name = CHEMBL173755
  21 active torsions:
  status: ('A' for Active; 'I' for Inactive)
    1  A    between atoms: C_1  and  C_2
    2  A    between atoms: C_2  and  C_3
    3  A    between atoms: C_3  and  C_4
    4  A    between atoms: C_4  and  C_5
    5  A    between atoms: C_5  and  C_6
    6  A    between atoms: C_6  and  C_7
    7  A    between atoms: C_7  and  C_8
    8  A    between atoms: C_8  and  C_9
    9  A    between atoms: N_11  and  C_12
   10  A    between atoms: C_12  and  C_13
   11  A    between atoms: C_16  and  O_17
   12  A    between atoms: O_17  and  C_18
   13  A    between atoms: C_18  and  C_19
   14  A    between atoms: C_19  and  O_20
   15  A    between atoms: C_19  and  C_21
   16  A    between atoms: C_21  and  C_22
   17  A    between atoms: C_22  and  O_23
   18  A    between atoms: C_22  and  C_24
   19  A    between atoms: C_24  and  O_25
   20  A    between atoms: C_26  and  O_27
   21  A    between atoms: O_27  and  C_28
                            x       y       z     vdW  Elec       q    Type
                         _______ _______ _______ _____ _____    ______ ____

>  <TORSDO>
F 19

>  <SCORE>
-6.204

>  <RMSD_LB>
6.550

>  <RMSD_UB>
10.001

$$$$
CHEMBL173755
 OpenBabel10172500413D

 33 33  0  0  1  0  0  0  0  0999 V2000
  137.2460  136.6680  151.6750 C   0  0  0  0  0  0  0  0  0  0  0  0
  136.1340  135.8770  151.9580 C   0  0  0  0  0  3  0  0  0  0  0  0
  135.6320  135.7740  153.2450 C   0  0  0  0  0  3  0  0  0  0  0  0
  136.2290  136.4730  154.3010 C   0  0  0  0  0  0  0  0  0  0  0  0
  137.3620  137.2620  154.0530 C   0  0  0  0  0  0  0  0  0  0  0  0
  137.8280  137.4020  152.7290 C   0  0  0  0  0  3  0  0  0  0  0  0
  138.0900  137.9550  154.9960 O   0  0  0  0  0  0  0  0  0  0  0  0
  139.2360  138.6590  154.5130 C   0  0  0  0  0  1  0  0  0  0  0  0
  135.7320  136.4480  155.5690 O   0  0  0  0  0  0  0  0  0  0  0  0
  135.7340  135.2070  156.2770 C   0  0  0  0  0  2  0  0  0  0  0  0
  136.5940  135.4150  157.5250 C   0  0  1  0  0  3  0  0  0  0  0  0
  137.8900  135.9010  157.1500 O   0  0  0  0  0  0  0  0  0  0  0  0
  137.7950  136.7450  156.6820 H   0  0  0  0  0  0  0  0  0  0  0  0
  135.9310  136.4120  158.4820 C   0  0  0  0  0  2  0  0  0  0  0  0
  136.7450  137.6980  158.6610 C   0  0  1  0  0  3  0  0  0  0  0  0
  136.6250  138.5080  157.4920 O   0  0  0  0  0  0  0  0  0  0  0  0
  135.8150  138.2680  157.0150 H   0  0  0  0  0  0  0  0  0  0  0  0
  136.2830  138.4610  159.9060 C   0  0  0  0  0  2  0  0  0  0  0  0
  135.5100  139.6060  159.5630 O   0  0  0  0  0  0  0  0  0  0  0  0
  135.9830  140.4080  159.8370 H   0  0  0  0  0  0  0  0  0  0  0  0
  137.8390  136.6620  150.2890 C   0  0  0  0  0  2  0  0  0  0  0  0
  136.3300  137.4800  148.5320 C   0  0  0  0  0  0  0  0  0  0  0  0
  136.6780  138.6350  148.6660 O   0  0  0  0  0  0  0  0  0  0  0  0
  136.8530  136.4280  149.2620 N   0  0  0  0  0  0  0  0  0  0  0  0
  136.5510  135.5090  149.0770 H   0  0  0  0  0  0  0  0  0  0  0  0
  135.2860  137.0610  147.5090 C   0  0  0  0  0  2  0  0  0  0  0  0
  134.1120  136.3810  148.1990 C   0  0  0  0  0  2  0  0  0  0  0  0
  133.7230  135.0730  147.5230 C   0  0  0  0  0  2  0  0  0  0  0  0
  134.7490  133.9900  147.8530 C   0  0  0  0  0  2  0  0  0  0  0  0
  134.0990  132.8460  148.6210 C   0  0  0  0  0  2  0  0  0  0  0  0
  133.9830  133.1900  150.1000 C   0  0  0  0  0  2  0  0  0  0  0  0
  132.5870  134.9540  151.1910 C   0  0  0  0  0  1  0  0  0  0  0  0
  132.5670  133.6340  150.4440 C   0  0  0  0  0  2  0  0  0  0  0  0
  1  2  2  0  0  0  0
  1  6  1  0  0  0  0
  2  3  1  0  0  0  0
  3  4  2  0  0  0  0
  4  9  1  0  0  0  0
  5  4  1  0  0  0  0
  5  7  1  0  0  0  0
  6  5  2  0  0  0  0
  8  7  1  0  0  0  0
  9 10  1  0  0  0  0
 11 10  1  6  0  0  0
 11 14  1  0  0  0  0
 12 11  1  0  0  0  0
 13 12  1  0  0  0  0
 15 14  1  6  0  0  0
 15 18  1  0  0  0  0
 16 15  1  0  0  0  0
 17 16  1  0  0  0  0
 19 20  1  0  0  0  0
 19 18  1  0  0  0  0
 21  1  1  0  0  0  0
 22 23  2  0  0  0  0
 22 24  1  0  0  0  0
 24 21  1  0  0  0  0
 25 24  1  0  0  0  0
 26 27  1  0  0  0  0
 26 22  1  0  0  0  0
 28 29  1  0  0  0  0
 28 27  1  0  0  0  0
 29 30  1  0  0  0  0
 30 31  1  0  0  0  0
 31 33  1  0  0  0  0
 33 32  1  0  0  0  0
M  END
>  <MODEL>
5

>  <REMARK>
 VINA RESULT:    -6.202      5.940      9.580
 INTER + INTRA:         -14.615
 INTER:                 -11.779
 INTRA:                  -2.836
 UNBOUND:                -2.068
  Name = CHEMBL173755
  21 active torsions:
  status: ('A' for Active; 'I' for Inactive)
    1  A    between atoms: C_1  and  C_2
    2  A    between atoms: C_2  and  C_3
    3  A    between atoms: C_3  and  C_4
    4  A    between atoms: C_4  and  C_5
    5  A    between atoms: C_5  and  C_6
    6  A    between atoms: C_6  and  C_7
    7  A    between atoms: C_7  and  C_8
    8  A    between atoms: C_8  and  C_9
    9  A    between atoms: N_11  and  C_12
   10  A    between atoms: C_12  and  C_13
   11  A    between atoms: C_16  and  O_17
   12  A    between atoms: O_17  and  C_18
   13  A    between atoms: C_18  and  C_19
   14  A    between atoms: C_19  and  O_20
   15  A    between atoms: C_19  and  C_21
   16  A    between atoms: C_21  and  C_22
   17  A    between atoms: C_22  and  O_23
   18  A    between atoms: C_22  and  C_24
   19  A    between atoms: C_24  and  O_25
   20  A    between atoms: C_26  and  O_27
   21  A    between atoms: O_27  and  C_28
                            x       y       z     vdW  Elec       q    Type
                         _______ _______ _______ _____ _____    ______ ____

>  <TORSDO>
F 19

>  <SCORE>
-6.202

>  <RMSD_LB>
5.940

>  <RMSD_UB>
9.580

$$$$
CHEMBL173755
 OpenBabel10172500413D

 33 33  0  0  1  0  0  0  0  0999 V2000
  137.2950  135.5630  149.8160 C   0  0  0  0  0  0  0  0  0  0  0  0
  138.1420  136.6370  150.0810 C   0  0  0  0  0  3  0  0  0  0  0  0
  138.1020  137.3040  151.2950 C   0  0  0  0  0  3  0  0  0  0  0  0
  137.2070  136.9090  152.2960 C   0  0  0  0  0  0  0  0  0  0  0  0
  136.3270  135.8430  152.0530 C   0  0  0  0  0  0  0  0  0  0  0  0
  136.4180  135.1390  150.8350 C   0  0  0  0  0  3  0  0  0  0  0  0
  135.3550  135.3830  152.9140 O   0  0  0  0  0  0  0  0  0  0  0  0
  134.5200  134.3340  152.4170 C   0  0  0  0  0  1  0  0  0  0  0  0
  137.1760  137.4970  153.5240 O   0  0  0  0  0  0  0  0  0  0  0  0
  138.4070  137.9390  154.0990 C   0  0  0  0  0  2  0  0  0  0  0  0
  138.1260  138.2190  155.5760 C   0  0  1  0  0  3  0  0  0  0  0  0
  136.9380  139.0110  155.7070 O   0  0  0  0  0  0  0  0  0  0  0  0
  136.2500  138.4910  156.1510 H   0  0  0  0  0  0  0  0  0  0  0  0
  137.9550  136.9090  156.3550 C   0  0  0  0  0  2  0  0  0  0  0  0
  136.5090  136.6630  156.7970 C   0  0  1  0  0  3  0  0  0  0  0  0
  135.7520  136.1570  155.6960 O   0  0  0  0  0  0  0  0  0  0  0  0
  136.0360  135.2510  155.4980 H   0  0  0  0  0  0  0  0  0  0  0  0
  136.4640  135.6950  157.9830 C   0  0  0  0  0  2  0  0  0  0  0  0
  136.4570  136.3890  159.2260 O   0  0  0  0  0  0  0  0  0  0  0  0
  136.0530  135.8280  159.9070 H   0  0  0  0  0  0  0  0  0  0  0  0
  137.2800  134.9390  148.4440 C   0  0  0  0  0  2  0  0  0  0  0  0
  135.5960  134.0310  146.9040 C   0  0  0  0  0  0  0  0  0  0  0  0
  136.1470  134.4780  145.9190 O   0  0  0  0  0  0  0  0  0  0  0  0
  136.0810  134.1790  148.1910 N   0  0  0  0  0  0  0  0  0  0  0  0
  135.6020  133.7590  148.9420 H   0  0  0  0  0  0  0  0  0  0  0  0
  134.3120  133.2230  146.8180 C   0  0  0  0  0  2  0  0  0  0  0  0
  133.5880  133.2340  148.1580 C   0  0  0  0  0  2  0  0  0  0  0  0
  132.5420  134.3380  148.2400 C   0  0  0  0  0  2  0  0  0  0  0  0
  133.0080  135.4270  149.2050 C   0  0  0  0  0  2  0  0  0  0  0  0
  133.0010  136.7910  148.5260 C   0  0  0  0  0  2  0  0  0  0  0  0
  132.4410  136.6830  147.1130 C   0  0  0  0  0  2  0  0  0  0  0  0
  134.7500  137.5780  146.7700 C   0  0  0  0  0  1  0  0  0  0  0  0
  133.4830  137.1030  146.0840 C   0  0  0  0  0  2  0  0  0  0  0  0
  1  2  2  0  0  0  0
  1  6  1  0  0  0  0
  2  3  1  0  0  0  0
  3  4  2  0  0  0  0
  4  9  1  0  0  0  0
  5  4  1  0  0  0  0
  5  7  1  0  0  0  0
  6  5  2  0  0  0  0
  8  7  1  0  0  0  0
  9 10  1  0  0  0  0
 11 10  1  6  0  0  0
 11 12  1  0  0  0  0
 11 14  1  0  0  0  0
 12 13  1  0  0  0  0
 15 14  1  6  0  0  0
 15 18  1  0  0  0  0
 16 15  1  0  0  0  0
 17 16  1  0  0  0  0
 18 19  1  0  0  0  0
 19 20  1  0  0  0  0
 21  1  1  0  0  0  0
 22 24  1  0  0  0  0
 23 22  2  0  0  0  0
 24 21  1  0  0  0  0
 24 25  1  0  0  0  0
 26 22  1  0  0  0  0
 26 27  1  0  0  0  0
 27 28  1  0  0  0  0
 28 29  1  0  0  0  0
 30 29  1  0  0  0  0
 31 30  1  0  0  0  0
 33 32  1  0  0  0  0
 33 31  1  0  0  0  0
M  END
>  <MODEL>
6

>  <REMARK>
 VINA RESULT:    -6.090      6.525     10.008
 INTER + INTRA:         -14.389
 INTER:                 -11.554
 INTRA:                  -2.835
 UNBOUND:                -2.068
  Name = CHEMBL173755
  21 active torsions:
  status: ('A' for Active; 'I' for Inactive)
    1  A    between atoms: C_1  and  C_2
    2  A    between atoms: C_2  and  C_3
    3  A    between atoms: C_3  and  C_4
    4  A    between atoms: C_4  and  C_5
    5  A    between atoms: C_5  and  C_6
    6  A    between atoms: C_6  and  C_7
    7  A    between atoms: C_7  and  C_8
    8  A    between atoms: C_8  and  C_9
    9  A    between atoms: N_11  and  C_12
   10  A    between atoms: C_12  and  C_13
   11  A    between atoms: C_16  and  O_17
   12  A    between atoms: O_17  and  C_18
   13  A    between atoms: C_18  and  C_19
   14  A    between atoms: C_19  and  O_20
   15  A    between atoms: C_19  and  C_21
   16  A    between atoms: C_21  and  C_22
   17  A    between atoms: C_22  and  O_23
   18  A    between atoms: C_22  and  C_24
   19  A    between atoms: C_24  and  O_25
   20  A    between atoms: C_26  and  O_27
   21  A    between atoms: O_27  and  C_28
                            x       y       z     vdW  Elec       q    Type
                         _______ _______ _______ _____ _____    ______ ____

>  <TORSDO>
F 19

>  <SCORE>
-6.090

>  <RMSD_LB>
6.525

>  <RMSD_UB>
10.008

$$$$
CHEMBL173755
 OpenBabel10172500413D

 33 33  0  0  1  0  0  0  0  0999 V2000
  136.8330  136.9210  155.0250 C   0  0  0  0  0  0  0  0  0  0  0  0
  137.0250  136.9120  153.6450 C   0  0  0  0  0  3  0  0  0  0  0  0
  136.3090  136.0580  152.8230 C   0  0  0  0  0  3  0  0  0  0  0  0
  135.3620  135.1780  153.3600 C   0  0  0  0  0  0  0  0  0  0  0  0
  135.1590  135.1480  154.7480 C   0  0  0  0  0  0  0  0  0  0  0  0
  135.8540  136.0620  155.5670 C   0  0  0  0  0  3  0  0  0  0  0  0
  134.3110  134.2980  155.4250 O   0  0  0  0  0  0  0  0  0  0  0  0
  134.3010  134.4210  156.8490 C   0  0  0  0  0  1  0  0  0  0  0  0
  134.5950  134.3650  152.5830 O   0  0  0  0  0  0  0  0  0  0  0  0
  133.2880  134.8100  152.2130 C   0  0  0  0  0  2  0  0  0  0  0  0
  133.1710  134.6150  150.7010 C   0  0  1  0  0  3  0  0  0  0  0  0
  133.6920  135.7640  150.0180 O   0  0  0  0  0  0  0  0  0  0  0  0
  134.0190  135.4990  149.1440 H   0  0  0  0  0  0  0  0  0  0  0  0
  133.9340  133.3640  150.2520 C   0  0  0  0  0  2  0  0  0  0  0  0
  133.5000  132.8640  148.8700 C   0  0  1  0  0  3  0  0  0  0  0  0
  132.3420  133.5830  148.4430 O   0  0  0  0  0  0  0  0  0  0  0  0
  131.7460  133.7120  149.1970 H   0  0  0  0  0  0  0  0  0  0  0  0
  134.6400  133.0120  147.8590 C   0  0  0  0  0  2  0  0  0  0  0  0
  134.1620  132.9760  146.5190 O   0  0  0  0  0  0  0  0  0  0  0  0
  133.8140  132.0920  146.3240 H   0  0  0  0  0  0  0  0  0  0  0  0
  137.7130  137.7740  155.9020 C   0  0  0  0  0  2  0  0  0  0  0  0
  139.9320  138.4250  155.0720 C   0  0  0  0  0  0  0  0  0  0  0  0
  139.5490  139.5060  154.6760 O   0  0  0  0  0  0  0  0  0  0  0  0
  139.1170  137.5070  155.7100 N   0  0  0  0  0  0  0  0  0  0  0  0
  139.5020  136.6610  156.0390 H   0  0  0  0  0  0  0  0  0  0  0  0
  141.3760  137.9740  154.9320 C   0  0  0  0  0  2  0  0  0  0  0  0
  142.2400  139.1170  154.4150 C   0  0  0  0  0  2  0  0  0  0  0  0
  143.0810  138.7070  153.2130 C   0  0  0  0  0  2  0  0  0  0  0  0
  142.5010  137.4450  152.5770 C   0  0  0  0  0  2  0  0  0  0  0  0
  142.3350  137.6240  151.0730 C   0  0  0  0  0  2  0  0  0  0  0  0
  140.9630  137.1380  150.6230 C   0  0  0  0  0  2  0  0  0  0  0  0
  139.0050  138.6620  150.9300 C   0  0  0  0  0  1  0  0  0  0  0  0
  139.8800  137.6090  151.5850 C   0  0  0  0  0  2  0  0  0  0  0  0
  1  6  1  0  0  0  0
  1 21  1  0  0  0  0
  2  1  2  0  0  0  0
  3  4  2  0  0  0  0
  3  2  1  0  0  0  0
  4  5  1  0  0  0  0
  5  7  1  0  0  0  0
  5  6  2  0  0  0  0
  7  8  1  0  0  0  0
  9  4  1  0  0  0  0
 10  9  1  0  0  0  0
 11 14  1  6  0  0  0
 11 10  1  0  0  0  0
 12 11  1  0  0  0  0
 13 12  1  0  0  0  0
 15 18  1  6  0  0  0
 15 14  1  0  0  0  0
 16 15  1  0  0  0  0
 16 17  1  0  0  0  0
 19 18  1  0  0  0  0
 20 19  1  0  0  0  0
 22 24  1  0  0  0  0
 23 22  2  0  0  0  0
 24 21  1  0  0  0  0
 24 25  1  0  0  0  0
 26 22  1  0  0  0  0
 27 26  1  0  0  0  0
 28 27  1  0  0  0  0
 29 28  1  0  0  0  0
 30 29  1  0  0  0  0
 31 30  1  0  0  0  0
 31 33  1  0  0  0  0
 32 33  1  0  0  0  0
M  END
>  <MODEL>
7

>  <REMARK>
 VINA RESULT:    -6.088      5.023      7.967
 INTER + INTRA:         -14.385
 INTER:                 -12.316
 INTRA:                  -2.068
 UNBOUND:                -2.068
  Name = CHEMBL173755
  21 active torsions:
  status: ('A' for Active; 'I' for Inactive)
    1  A    between atoms: C_1  and  C_2
    2  A    between atoms: C_2  and  C_3
    3  A    between atoms: C_3  and  C_4
    4  A    between atoms: C_4  and  C_5
    5  A    between atoms: C_5  and  C_6
    6  A    between atoms: C_6  and  C_7
    7  A    between atoms: C_7  and  C_8
    8  A    between atoms: C_8  and  C_9
    9  A    between atoms: N_11  and  C_12
   10  A    between atoms: C_12  and  C_13
   11  A    between atoms: C_16  and  O_17
   12  A    between atoms: O_17  and  C_18
   13  A    between atoms: C_18  and  C_19
   14  A    between atoms: C_19  and  O_20
   15  A    between atoms: C_19  and  C_21
   16  A    between atoms: C_21  and  C_22
   17  A    between atoms: C_22  and  O_23
   18  A    between atoms: C_22  and  C_24
   19  A    between atoms: C_24  and  O_25
   20  A    between atoms: C_26  and  O_27
   21  A    between atoms: O_27  and  C_28
                            x       y       z     vdW  Elec       q    Type
                         _______ _______ _______ _____ _____    ______ ____

>  <TORSDO>
F 19

>  <SCORE>
-6.088

>  <RMSD_LB>
5.023

>  <RMSD_UB>
7.967

$$$$
CHEMBL173755
 OpenBabel10172500413D

 33 33  0  0  1  0  0  0  0  0999 V2000
  140.1480  137.1950  150.7310 C   0  0  0  0  0  0  0  0  0  0  0  0
  139.9450  137.6730  152.0240 C   0  0  0  0  0  3  0  0  0  0  0  0
  140.9990  137.8310  152.9080 C   0  0  0  0  0  3  0  0  0  0  0  0
  142.3080  137.5160  152.5210 C   0  0  0  0  0  0  0  0  0  0  0  0
  142.5430  137.0130  151.2330 C   0  0  0  0  0  0  0  0  0  0  0  0
  141.4690  136.9110  150.3260 C   0  0  0  0  0  3  0  0  0  0  0  0
  143.7600  136.6040  150.7330 O   0  0  0  0  0  0  0  0  0  0  0  0
  144.6240  137.6380  150.2550 C   0  0  0  0  0  1  0  0  0  0  0  0
  143.3800  137.7120  153.3370 O   0  0  0  0  0  0  0  0  0  0  0  0
  143.3690  138.8370  154.2180 C   0  0  0  0  0  2  0  0  0  0  0  0
  144.6520  139.6230  153.9430 C   0  0  1  0  0  3  0  0  0  0  0  0
  144.7970  140.6750  154.9060 O   0  0  0  0  0  0  0  0  0  0  0  0
  145.6580  140.5950  155.3450 H   0  0  0  0  0  0  0  0  0  0  0  0
  145.8770  138.7020  154.0040 C   0  0  0  0  0  2  0  0  0  0  0  0
  147.0410  139.3100  154.7940 C   0  0  1  0  0  3  0  0  0  0  0  0
  146.9400  138.9270  156.1650 O   0  0  0  0  0  0  0  0  0  0  0  0
  146.0810  139.2070  156.5170 H   0  0  0  0  0  0  0  0  0  0  0  0
  148.3830  138.8740  154.1990 C   0  0  0  0  0  2  0  0  0  0  0  0
  149.1630  139.9910  153.7880 O   0  0  0  0  0  0  0  0  0  0  0  0
  149.5460  140.4220  154.5680 H   0  0  0  0  0  0  0  0  0  0  0  0
  138.9660  136.9210  149.8370 C   0  0  0  0  0  2  0  0  0  0  0  0
  136.9580  135.5940  150.3320 C   0  0  0  0  0  0  0  0  0  0  0  0
  137.2450  134.7250  149.5350 O   0  0  0  0  0  0  0  0  0  0  0  0
  137.7460  136.7050  150.5760 N   0  0  0  0  0  0  0  0  0  0  0  0
  137.4710  137.3550  151.2630 H   0  0  0  0  0  0  0  0  0  0  0  0
  135.6980  135.5350  151.1790 C   0  0  0  0  0  2  0  0  0  0  0  0
  135.3820  134.0950  151.5590 C   0  0  0  0  0  2  0  0  0  0  0  0
  133.9660  133.6910  151.1690 C   0  0  0  0  0  2  0  0  0  0  0  0
  133.9680  133.0670  149.7740 C   0  0  0  0  0  2  0  0  0  0  0  0
  132.9950  133.7950  148.8550 C   0  0  0  0  0  2  0  0  0  0  0  0
  133.7220  134.8550  148.0370 C   0  0  0  0  0  2  0  0  0  0  0  0
  132.8640  136.9430  149.1130 C   0  0  0  0  0  1  0  0  0  0  0  0
  132.8500  136.0910  147.8570 C   0  0  0  0  0  2  0  0  0  0  0  0
  1  2  1  0  0  0  0
  2  3  2  0  0  0  0
  4  3  1  0  0  0  0
  4  9  1  0  0  0  0
  5  4  2  0  0  0  0
  6  1  2  0  0  0  0
  6  5  1  0  0  0  0
  7  5  1  0  0  0  0
  8  7  1  0  0  0  0
  9 10  1  0  0  0  0
 11 14  1  1  0  0  0
 11 10  1  0  0  0  0
 11 12  1  0  0  0  0
 12 13  1  0  0  0  0
 15 14  1  6  0  0  0
 15 16  1  0  0  0  0
 16 17  1  0  0  0  0
 18 15  1  0  0  0  0
 19 18  1  0  0  0  0
 19 20  1  0  0  0  0
 21 24  1  0  0  0  0
 21  1  1  0  0  0  0
 22 24  1  0  0  0  0
 22 26  1  0  0  0  0
 23 22  2  0  0  0  0
 24 25  1  0  0  0  0
 26 27  1  0  0  0  0
 28 27  1  0  0  0  0
 29 28  1  0  0  0  0
 30 29  1  0  0  0  0
 31 30  1  0  0  0  0
 33 31  1  0  0  0  0
 33 32  1  0  0  0  0
M  END
>  <MODEL>
8

>  <REMARK>
 VINA RESULT:    -6.062      4.789     10.234
 INTER + INTRA:         -14.333
 INTER:                 -12.681
 INTRA:                  -1.652
 UNBOUND:                -2.068
  Name = CHEMBL173755
  21 active torsions:
  status: ('A' for Active; 'I' for Inactive)
    1  A    between atoms: C_1  and  C_2
    2  A    between atoms: C_2  and  C_3
    3  A    between atoms: C_3  and  C_4
    4  A    between atoms: C_4  and  C_5
    5  A    between atoms: C_5  and  C_6
    6  A    between atoms: C_6  and  C_7
    7  A    between atoms: C_7  and  C_8
    8  A    between atoms: C_8  and  C_9
    9  A    between atoms: N_11  and  C_12
   10  A    between atoms: C_12  and  C_13
   11  A    between atoms: C_16  and  O_17
   12  A    between atoms: O_17  and  C_18
   13  A    between atoms: C_18  and  C_19
   14  A    between atoms: C_19  and  O_20
   15  A    between atoms: C_19  and  C_21
   16  A    between atoms: C_21  and  C_22
   17  A    between atoms: C_22  and  O_23
   18  A    between atoms: C_22  and  C_24
   19  A    between atoms: C_24  and  O_25
   20  A    between atoms: C_26  and  O_27
   21  A    between atoms: O_27  and  C_28
                            x       y       z     vdW  Elec       q    Type
                         _______ _______ _______ _____ _____    ______ ____

>  <TORSDO>
F 19

>  <SCORE>
-6.062

>  <RMSD_LB>
4.789

>  <RMSD_UB>
10.234

$$$$
CHEMBL173755
 OpenBabel10172500413D

 33 33  0  0  1  0  0  0  0  0999 V2000
  140.4050  138.4590  154.7010 C   0  0  0  0  0  0  0  0  0  0  0  0
  139.8810  138.3160  153.4180 C   0  0  0  0  0  3  0  0  0  0  0  0
  138.6030  137.8190  153.2140 C   0  0  0  0  0  3  0  0  0  0  0  0
  137.7990  137.4520  154.2990 C   0  0  0  0  0  0  0  0  0  0  0  0
  138.3060  137.5650  155.6020 C   0  0  0  0  0  0  0  0  0  0  0  0
  139.5850  138.1240  155.7980 C   0  0  0  0  0  3  0  0  0  0  0  0
  137.6580  137.1870  156.7580 O   0  0  0  0  0  0  0  0  0  0  0  0
  138.1280  137.7890  157.9670 C   0  0  0  0  0  1  0  0  0  0  0  0
  136.5180  137.0160  154.1460 O   0  0  0  0  0  0  0  0  0  0  0  0
  136.2380  135.6310  154.3610 C   0  0  0  0  0  2  0  0  0  0  0  0
  135.0740  135.2700  153.4370 C   0  0  1  0  0  3  0  0  0  0  0  0
  134.1630  136.3740  153.3430 O   0  0  0  0  0  0  0  0  0  0  0  0
  133.8250  136.4370  152.4370 H   0  0  0  0  0  0  0  0  0  0  0  0
  135.5830  134.9070  152.0370 C   0  0  0  0  0  2  0  0  0  0  0  0
  134.5250  134.1970  151.1840 C   0  0  1  0  0  3  0  0  0  0  0  0
  133.4420  133.7800  152.0140 O   0  0  0  0  0  0  0  0  0  0  0  0
  132.7340  134.4420  151.9800 H   0  0  0  0  0  0  0  0  0  0  0  0
  134.0330  135.1150  150.0610 C   0  0  0  0  0  2  0  0  0  0  0  0
  133.1680  136.1310  150.5550 O   0  0  0  0  0  0  0  0  0  0  0  0
  132.4110  136.2300  149.9560 H   0  0  0  0  0  0  0  0  0  0  0  0
  141.8390  138.8870  154.8830 C   0  0  0  0  0  2  0  0  0  0  0  0
  143.6380  138.3830  153.2870 C   0  0  0  0  0  0  0  0  0  0  0  0
  144.0990  137.4940  153.9730 O   0  0  0  0  0  0  0  0  0  0  0  0
  142.5160  139.1150  153.6290 N   0  0  0  0  0  0  0  0  0  0  0  0
  142.1740  139.8000  153.0090 H   0  0  0  0  0  0  0  0  0  0  0  0
  144.2410  138.7680  151.9470 C   0  0  0  0  0  2  0  0  0  0  0  0
  143.5270  139.9860  151.3750 C   0  0  0  0  0  2  0  0  0  0  0  0
  144.4910  140.9690  150.7250 C   0  0  0  0  0  2  0  0  0  0  0  0
  145.8420  140.9230  151.4370 C   0  0  0  0  0  2  0  0  0  0  0  0
  146.1890  142.2850  152.0250 C   0  0  0  0  0  2  0  0  0  0  0  0
  146.2430  142.2140  153.5460 C   0  0  0  0  0  2  0  0  0  0  0  0
  148.6390  141.7150  154.0620 C   0  0  0  0  0  1  0  0  0  0  0  0
  147.2320  141.1490  154.0030 C   0  0  0  0  0  2  0  0  0  0  0  0
  1 21  1  0  0  0  0
  1  6  1  0  0  0  0
  2  1  2  0  0  0  0
  3  2  1  0  0  0  0
  3  4  2  0  0  0  0
  4  5  1  0  0  0  0
  5  6  2  0  0  0  0
  5  7  1  0  0  0  0
  7  8  1  0  0  0  0
  9  4  1  0  0  0  0
  9 10  1  0  0  0  0
 11 14  1  6  0  0  0
 11 10  1  0  0  0  0
 12 11  1  0  0  0  0
 13 12  1  0  0  0  0
 15 18  1  6  0  0  0
 15 16  1  0  0  0  0
 15 14  1  0  0  0  0
 17 16  1  0  0  0  0
 18 19  1  0  0  0  0
 20 19  1  0  0  0  0
 22 24  1  0  0  0  0
 22 23  2  0  0  0  0
 24 21  1  0  0  0  0
 25 24  1  0  0  0  0
 26 22  1  0  0  0  0
 27 26  1  0  0  0  0
 28 27  1  0  0  0  0
 28 29  1  0  0  0  0
 29 30  1  0  0  0  0
 30 31  1  0  0  0  0
 31 33  1  0  0  0  0
 33 32  1  0  0  0  0
M  END
>  <MODEL>
9

>  <REMARK>
 VINA RESULT:    -6.013      3.176      4.827
 INTER + INTRA:         -14.232
 INTER:                 -12.549
 INTRA:                  -1.684
 UNBOUND:                -2.068
  Name = CHEMBL173755
  21 active torsions:
  status: ('A' for Active; 'I' for Inactive)
    1  A    between atoms: C_1  and  C_2
    2  A    between atoms: C_2  and  C_3
    3  A    between atoms: C_3  and  C_4
    4  A    between atoms: C_4  and  C_5
    5  A    between atoms: C_5  and  C_6
    6  A    between atoms: C_6  and  C_7
    7  A    between atoms: C_7  and  C_8
    8  A    between atoms: C_8  and  C_9
    9  A    between atoms: N_11  and  C_12
   10  A    between atoms: C_12  and  C_13
   11  A    between atoms: C_16  and  O_17
   12  A    between atoms: O_17  and  C_18
   13  A    between atoms: C_18  and  C_19
   14  A    between atoms: C_19  and  O_20
   15  A    between atoms: C_19  and  C_21
   16  A    between atoms: C_21  and  C_22
   17  A    between atoms: C_22  and  O_23
   18  A    between atoms: C_22  and  C_24
   19  A    between atoms: C_24  and  O_25
   20  A    between atoms: C_26  and  O_27
   21  A    between atoms: O_27  and  C_28
                            x       y       z     vdW  Elec       q    Type
                         _______ _______ _______ _____ _____    ______ ____

>  <TORSDO>
F 19

>  <SCORE>
-6.013

>  <RMSD_LB>
3.176

>  <RMSD_UB>
4.827

$$$$
