CHEMBL2314240
 OpenBabel10162523523D

 38 39  0  0  0  0  0  0  0  0999 V2000
  146.3530  138.7620  146.7430 N   0  0  0  0  0  4  0  0  0  0  0  0
  147.1320  138.8220  146.0880 H   0  0  0  0  0  0  0  0  0  0  0  0
  146.6940  138.5180  147.6740 H   0  0  0  0  0  0  0  0  0  0  0  0
  145.4230  137.7260  146.2930 C   0  0  0  0  0  2  0  0  0  0  0  0
  145.0370  136.7570  147.4110 C   0  0  0  0  0  2  0  0  0  0  0  0
  143.6570  137.1660  147.9130 C   0  0  0  0  0  2  0  0  0  0  0  0
  143.5000  137.6460  150.2870 C   0  0  0  0  0  0  0  0  0  0  0  0
  143.8520  138.8100  150.0990 O   0  0  0  0  0  0  0  0  0  0  0  0
  143.3510  136.7390  149.2560 N   0  0  0  0  0  0  0  0  0  0  0  0
  143.0410  135.8220  149.4340 H   0  0  0  0  0  0  0  0  0  0  0  0
  143.1740  137.1230  151.6730 C   0  0  0  0  0  2  0  0  0  0  0  0
  140.7640  138.5240  154.3170 C   0  0  0  0  0  0  0  0  0  0  0  0
  141.8960  137.9580  153.7200 C   0  0  0  0  0  3  0  0  0  0  0  0
  141.9720  137.7670  152.3300 C   0  0  0  0  0  0  0  0  0  0  0  0
  140.8620  138.1050  151.5410 C   0  0  0  0  0  3  0  0  0  0  0  0
  139.7200  138.6570  152.1250 C   0  0  0  0  0  3  0  0  0  0  0  0
  139.6790  138.8710  153.5020 C   0  0  0  0  0  0  0  0  0  0  0  0
  140.5200  137.6350  156.5140 C   0  0  0  0  0  1  0  0  0  0  0  0
  140.6250  138.7660  155.6580 O   0  0  0  0  0  0  0  0  0  0  0  0
  138.5610  139.4190  154.0710 O   0  0  0  0  0  0  0  0  0  0  0  0
  138.2920  139.1520  154.9280 H   0  0  0  0  0  0  0  0  0  0  0  0
  145.6740  140.0730  146.8120 C   0  0  0  0  0  2  0  0  0  0  0  0
  146.3620  141.0850  147.7500 C   0  0  0  0  0  2  0  0  0  0  0  0
  145.7720  141.1310  149.0720 N   0  0  0  0  0  0  0  0  0  0  0  0
  146.1190  142.1250  149.9650 C   0  0  0  0  0  0  0  0  0  0  0  0
  147.0070  142.9440  149.7360 O   0  0  0  0  0  0  0  0  0  0  0  0
  145.1170  140.4440  149.3380 H   0  0  0  0  0  0  0  0  0  0  0  0
  145.3010  142.1540  151.2440 C   0  0  0  0  0  2  0  0  0  0  0  0
  145.9510  141.4830  152.4340 C   0  0  0  0  0  0  0  0  0  0  0  0
  147.0780  142.0100  153.0730 C   0  0  0  0  0  3  0  0  0  0  0  0
  147.6580  141.3460  154.1570 C   0  0  0  0  0  3  0  0  0  0  0  0
  147.1350  140.1300  154.6050 C   0  0  0  0  0  0  0  0  0  0  0  0
  146.0380  139.5550  153.9570 C   0  0  0  0  0  0  0  0  0  0  0  0
  145.4610  140.2400  152.8750 C   0  0  0  0  0  3  0  0  0  0  0  0
  147.7260  139.5320  155.6840 O   0  0  0  0  0  0  0  0  0  0  0  0
  147.8500  138.6030  155.6940 H   0  0  0  0  0  0  0  0  0  0  0  0
  145.4170  138.3660  154.2290 O   0  0  0  0  0  0  0  0  0  0  0  0
  146.0580  137.1670  153.8190 C   0  0  0  0  0  1  0  0  0  0  0  0
  1 22  1  0  0  0  0
  1  3  1  0  0  0  0
  2  1  1  0  0  0  0
  4  1  1  0  0  0  0
  4  5  1  0  0  0  0
  5  6  1  0  0  0  0
  6  9  1  0  0  0  0
  7 11  1  0  0  0  0
  8  7  2  0  0  0  0
  9 10  1  0  0  0  0
  9  7  1  0  0  0  0
 11 14  1  0  0  0  0
 12 19  1  0  0  0  0
 13 12  1  0  0  0  0
 14 13  2  0  0  0  0
 15 16  2  0  0  0  0
 15 14  1  0  0  0  0
 16 17  1  0  0  0  0
 17 20  1  0  0  0  0
 17 12  2  0  0  0  0
 19 18  1  0  0  0  0
 20 21  1  0  0  0  0
 22 23  1  0  0  0  0
 23 24  1  0  0  0  0
 24 27  1  0  0  0  0
 24 25  1  0  0  0  0
 25 28  1  0  0  0  0
 26 25  2  0  0  0  0
 28 29  1  0  0  0  0
 29 34  2  0  0  0  0
 29 30  1  0  0  0  0
 30 31  2  0  0  0  0
 31 32  1  0  0  0  0
 32 35  1  0  0  0  0
 33 37  1  0  0  0  0
 33 32  2  0  0  0  0
 34 33  1  0  0  0  0
 35 36  1  0  0  0  0
 38 37  1  0  0  0  0
M  END
>  <MODEL>
1

>  <REMARK>
 VINA RESULT:    -6.820      0.000      0.000
 INTER + INTRA:         -14.388
 INTER:                 -12.371
 INTRA:                  -2.017
 UNBOUND:                -1.986
  Name = CHEMBL2314240
  17 active torsions:
  status: ('A' for Active; 'I' for Inactive)
    1  A    between atoms: C_1  and  O_2
    2  A    between atoms: O_2  and  C_3
    3  A    between atoms: C_5  and  C_6
    4  A    between atoms: C_6  and  C_7
    5  A    between atoms: N_9  and  C_10
    6  A    between atoms: C_10  and  C_11
    7  A    between atoms: C_11  and  C_12
    8  A    between atoms: C_12  and  N_13
    9  A    between atoms: N_13  and  C_14
   10  A    between atoms: C_14  and  C_15
   11  A    between atoms: C_15  and  N_16
   12  A    between atoms: C_17  and  C_19
   13  A    between atoms: C_19  and  C_20
   14  A    between atoms: C_23  and  O_24
   15  A    between atoms: C_25  and  O_26
   16  A    between atoms: O_26  and  C_27
   17  A    between atoms: C_31  and  O_32
                            x       y       z     vdW  Elec       q    Type
                         _______ _______ _______ _____ _____    ______ ____

>  <TORSDO>
F 15

>  <SCORE>
-6.820

>  <RMSD_LB>
0.000

>  <RMSD_UB>
0.000

$$$$
CHEMBL2314240
 OpenBabel10162523523D

 38 39  0  0  0  0  0  0  0  0999 V2000
  135.4500  135.7670  150.2540 N   0  0  0  0  0  4  0  0  0  0  0  0
  135.9640  134.9950  150.6780 H   0  0  0  0  0  0  0  0  0  0  0  0
  135.0540  135.4780  149.3590 H   0  0  0  0  0  0  0  0  0  0  0  0
  136.3640  136.8880  150.0270 C   0  0  0  0  0  2  0  0  0  0  0  0
  137.6150  136.8130  150.9030 C   0  0  0  0  0  2  0  0  0  0  0  0
  138.8190  136.7400  149.9710 C   0  0  0  0  0  2  0  0  0  0  0  0
  139.1540  135.3760  147.9910 C   0  0  0  0  0  0  0  0  0  0  0  0
  139.9650  134.6680  148.5880 O   0  0  0  0  0  0  0  0  0  0  0  0
  138.5040  136.4330  148.5980 N   0  0  0  0  0  0  0  0  0  0  0  0
  137.8380  136.9640  148.1040 H   0  0  0  0  0  0  0  0  0  0  0  0
  138.7830  135.1220  146.5430 C   0  0  0  0  0  2  0  0  0  0  0  0
  134.9750  134.9030  146.0780 C   0  0  0  0  0  0  0  0  0  0  0  0
  136.2650  135.4220  146.2430 C   0  0  0  0  0  3  0  0  0  0  0  0
  137.3870  134.5790  146.3290 C   0  0  0  0  0  0  0  0  0  0  0  0
  137.1890  133.1900  146.3030 C   0  0  0  0  0  3  0  0  0  0  0  0
  135.9080  132.6590  146.1550 C   0  0  0  0  0  3  0  0  0  0  0  0
  134.8120  133.5130  146.0350 C   0  0  0  0  0  0  0  0  0  0  0  0
  133.3270  136.2520  147.1470 C   0  0  0  0  0  1  0  0  0  0  0  0
  133.8390  135.6580  145.9600 O   0  0  0  0  0  0  0  0  0  0  0  0
  133.5560  132.9900  145.8820 O   0  0  0  0  0  0  0  0  0  0  0  0
  133.4470  132.1280  145.5300 H   0  0  0  0  0  0  0  0  0  0  0  0
  134.3500  136.1710  151.1540 C   0  0  0  0  0  2  0  0  0  0  0  0
  133.4250  135.0100  151.5700 C   0  0  0  0  0  2  0  0  0  0  0  0
  133.4850  134.7100  152.9860 N   0  0  0  0  0  0  0  0  0  0  0  0
  134.6530  134.2500  153.5600 C   0  0  0  0  0  0  0  0  0  0  0  0
  135.6530  133.9700  152.9010 O   0  0  0  0  0  0  0  0  0  0  0  0
  132.6830  134.8350  153.5450 H   0  0  0  0  0  0  0  0  0  0  0  0
  134.6260  134.1420  155.0740 C   0  0  0  0  0  2  0  0  0  0  0  0
  135.4090  135.2110  155.8050 C   0  0  0  0  0  0  0  0  0  0  0  0
  136.2580  136.1070  155.1450 C   0  0  0  0  0  3  0  0  0  0  0  0
  136.9780  137.0660  155.8620 C   0  0  0  0  0  3  0  0  0  0  0  0
  136.8800  137.1310  157.2550 C   0  0  0  0  0  0  0  0  0  0  0  0
  136.0770  136.2190  157.9460 C   0  0  0  0  0  0  0  0  0  0  0  0
  135.3530  135.2670  157.2090 C   0  0  0  0  0  3  0  0  0  0  0  0
  137.5870  138.1020  157.9070 O   0  0  0  0  0  0  0  0  0  0  0  0
  138.1570  137.8710  158.6150 H   0  0  0  0  0  0  0  0  0  0  0  0
  135.8860  136.1070  159.2970 O   0  0  0  0  0  0  0  0  0  0  0  0
  136.4820  135.0070  159.9690 C   0  0  0  0  0  1  0  0  0  0  0  0
  1  2  1  0  0  0  0
  1 22  1  0  0  0  0
  3  1  1  0  0  0  0
  4  1  1  0  0  0  0
  4  5  1  0  0  0  0
  6  5  1  0  0  0  0
  7  8  2  0  0  0  0
  7  9  1  0  0  0  0
  9  6  1  0  0  0  0
 10  9  1  0  0  0  0
 11  7  1  0  0  0  0
 12 13  1  0  0  0  0
 13 14  2  0  0  0  0
 14 11  1  0  0  0  0
 15 14  1  0  0  0  0
 16 15  2  0  0  0  0
 17 12  2  0  0  0  0
 17 16  1  0  0  0  0
 19 12  1  0  0  0  0
 19 18  1  0  0  0  0
 20 17  1  0  0  0  0
 21 20  1  0  0  0  0
 22 23  1  0  0  0  0
 23 24  1  0  0  0  0
 24 27  1  0  0  0  0
 24 25  1  0  0  0  0
 25 28  1  0  0  0  0
 26 25  2  0  0  0  0
 28 29  1  0  0  0  0
 29 34  1  0  0  0  0
 30 29  2  0  0  0  0
 30 31  1  0  0  0  0
 31 32  2  0  0  0  0
 32 35  1  0  0  0  0
 32 33  1  0  0  0  0
 33 37  1  0  0  0  0
 34 33  2  0  0  0  0
 35 36  1  0  0  0  0
 37 38  1  0  0  0  0
M  END
>  <MODEL>
2

>  <REMARK>
 VINA RESULT:    -5.965      7.319     10.967
 INTER + INTRA:         -12.833
 INTER:                 -11.663
 INTRA:                  -1.170
 UNBOUND:                -1.986
  Name = CHEMBL2314240
  17 active torsions:
  status: ('A' for Active; 'I' for Inactive)
    1  A    between atoms: C_1  and  O_2
    2  A    between atoms: O_2  and  C_3
    3  A    between atoms: C_5  and  C_6
    4  A    between atoms: C_6  and  C_7
    5  A    between atoms: N_9  and  C_10
    6  A    between atoms: C_10  and  C_11
    7  A    between atoms: C_11  and  C_12
    8  A    between atoms: C_12  and  N_13
    9  A    between atoms: N_13  and  C_14
   10  A    between atoms: C_14  and  C_15
   11  A    between atoms: C_15  and  N_16
   12  A    between atoms: C_17  and  C_19
   13  A    between atoms: C_19  and  C_20
   14  A    between atoms: C_23  and  O_24
   15  A    between atoms: C_25  and  O_26
   16  A    between atoms: O_26  and  C_27
   17  A    between atoms: C_31  and  O_32
                            x       y       z     vdW  Elec       q    Type
                         _______ _______ _______ _____ _____    ______ ____

>  <TORSDO>
F 15

>  <SCORE>
-5.965

>  <RMSD_LB>
7.319

>  <RMSD_UB>
10.967

$$$$
CHEMBL2314240
 OpenBabel10162523523D

 38 39  0  0  0  0  0  0  0  0999 V2000
  144.3570  139.3200  146.6730 N   0  0  0  0  0  4  0  0  0  0  0  0
  144.6430  140.2980  146.6490 H   0  0  0  0  0  0  0  0  0  0  0  0
  143.9160  139.1040  147.5680 H   0  0  0  0  0  0  0  0  0  0  0  0
  145.5360  138.4680  146.5090 C   0  0  0  0  0  2  0  0  0  0  0  0
  146.3070  138.2750  147.8150 C   0  0  0  0  0  2  0  0  0  0  0  0
  146.9320  139.6170  148.1770 C   0  0  0  0  0  2  0  0  0  0  0  0
  146.3070  141.6240  149.3910 C   0  0  0  0  0  0  0  0  0  0  0  0
  146.6660  142.3330  148.4510 O   0  0  0  0  0  0  0  0  0  0  0  0
  146.3790  140.2460  149.3520 N   0  0  0  0  0  0  0  0  0  0  0  0
  146.0580  139.7030  150.1080 H   0  0  0  0  0  0  0  0  0  0  0  0
  145.7280  142.2150  150.6620 C   0  0  0  0  0  2  0  0  0  0  0  0
  145.6330  139.9040  153.7300 C   0  0  0  0  0  0  0  0  0  0  0  0
  145.2760  140.5390  152.5360 C   0  0  0  0  0  3  0  0  0  0  0  0
  146.1160  141.4930  151.9340 C   0  0  0  0  0  0  0  0  0  0  0  0
  147.3080  141.8450  152.5840 C   0  0  0  0  0  3  0  0  0  0  0  0
  147.6700  141.2310  153.7840 C   0  0  0  0  0  3  0  0  0  0  0  0
  146.8390  140.2610  154.3450 C   0  0  0  0  0  0  0  0  0  0  0  0
  143.5450  139.2930  154.7030 C   0  0  0  0  0  1  0  0  0  0  0  0
  144.8820  138.9480  154.3620 O   0  0  0  0  0  0  0  0  0  0  0  0
  147.1990  139.6550  155.5180 O   0  0  0  0  0  0  0  0  0  0  0  0
  147.2100  140.1460  156.3160 H   0  0  0  0  0  0  0  0  0  0  0  0
  143.3840  139.0710  145.5890 C   0  0  0  0  0  2  0  0  0  0  0  0
  142.4990  137.8290  145.8160 C   0  0  0  0  0  2  0  0  0  0  0  0
  142.3660  137.4700  147.2140 N   0  0  0  0  0  0  0  0  0  0  0  0
  141.5360  136.4370  147.6000 C   0  0  0  0  0  0  0  0  0  0  0  0
  140.7950  135.8500  146.8140 O   0  0  0  0  0  0  0  0  0  0  0  0
  142.8740  137.9680  147.8950 H   0  0  0  0  0  0  0  0  0  0  0  0
  141.6250  136.0560  149.0670 C   0  0  0  0  0  2  0  0  0  0  0  0
  141.0020  137.0480  150.0250 C   0  0  0  0  0  0  0  0  0  0  0  0
  141.5800  137.3710  151.2570 C   0  0  0  0  0  3  0  0  0  0  0  0
  140.9590  138.2780  152.1190 C   0  0  0  0  0  3  0  0  0  0  0  0
  139.7370  138.8610  151.7750 C   0  0  0  0  0  0  0  0  0  0  0  0
  139.1120  138.5230  150.5710 C   0  0  0  0  0  0  0  0  0  0  0  0
  139.7540  137.6160  149.7110 C   0  0  0  0  0  3  0  0  0  0  0  0
  139.1830  139.7600  152.6430 O   0  0  0  0  0  0  0  0  0  0  0  0
  139.3730  139.7050  153.5590 H   0  0  0  0  0  0  0  0  0  0  0  0
  137.9090  138.9600  150.0860 O   0  0  0  0  0  0  0  0  0  0  0  0
  137.9050  140.0860  149.2200 C   0  0  0  0  0  1  0  0  0  0  0  0
  1  3  1  0  0  0  0
  2  1  1  0  0  0  0
  4  1  1  0  0  0  0
  4  5  1  0  0  0  0
  5  6  1  0  0  0  0
  6  9  1  0  0  0  0
  7 11  1  0  0  0  0
  8  7  2  0  0  0  0
  9  7  1  0  0  0  0
  9 10  1  0  0  0  0
 11 14  1  0  0  0  0
 12 17  1  0  0  0  0
 12 19  1  0  0  0  0
 13 12  2  0  0  0  0
 14 13  1  0  0  0  0
 14 15  2  0  0  0  0
 15 16  1  0  0  0  0
 16 17  2  0  0  0  0
 17 20  1  0  0  0  0
 19 18  1  0  0  0  0
 20 21  1  0  0  0  0
 22 23  1  0  0  0  0
 22  1  1  0  0  0  0
 23 24  1  0  0  0  0
 24 25  1  0  0  0  0
 24 27  1  0  0  0  0
 25 28  1  0  0  0  0
 26 25  2  0  0  0  0
 28 29  1  0  0  0  0
 29 30  1  0  0  0  0
 30 31  2  0  0  0  0
 32 31  1  0  0  0  0
 32 35  1  0  0  0  0
 33 32  2  0  0  0  0
 34 29  2  0  0  0  0
 34 33  1  0  0  0  0
 35 36  1  0  0  0  0
 37 33  1  0  0  0  0
 38 37  1  0  0  0  0
M  END
>  <MODEL>
3

>  <REMARK>
 VINA RESULT:    -5.843      2.000      6.537
 INTER + INTRA:         -12.610
 INTER:                 -11.260
 INTRA:                  -1.351
 UNBOUND:                -1.986
  Name = CHEMBL2314240
  17 active torsions:
  status: ('A' for Active; 'I' for Inactive)
    1  A    between atoms: C_1  and  O_2
    2  A    between atoms: O_2  and  C_3
    3  A    between atoms: C_5  and  C_6
    4  A    between atoms: C_6  and  C_7
    5  A    between atoms: N_9  and  C_10
    6  A    between atoms: C_10  and  C_11
    7  A    between atoms: C_11  and  C_12
    8  A    between atoms: C_12  and  N_13
    9  A    between atoms: N_13  and  C_14
   10  A    between atoms: C_14  and  C_15
   11  A    between atoms: C_15  and  N_16
   12  A    between atoms: C_17  and  C_19
   13  A    between atoms: C_19  and  C_20
   14  A    between atoms: C_23  and  O_24
   15  A    between atoms: C_25  and  O_26
   16  A    between atoms: O_26  and  C_27
   17  A    between atoms: C_31  and  O_32
                            x       y       z     vdW  Elec       q    Type
                         _______ _______ _______ _____ _____    ______ ____

>  <TORSDO>
F 15

>  <SCORE>
-5.843

>  <RMSD_LB>
2.000

>  <RMSD_UB>
6.537

$$$$
CHEMBL2314240
 OpenBabel10162523523D

 38 39  0  0  0  0  0  0  0  0999 V2000
  142.2680  138.2230  149.1570 N   0  0  0  0  0  4  0  0  0  0  0  0
  142.8910  137.7310  149.7970 H   0  0  0  0  0  0  0  0  0  0  0  0
  141.3170  138.2270  149.5260 H   0  0  0  0  0  0  0  0  0  0  0  0
  142.2700  137.5400  147.8620 C   0  0  0  0  0  2  0  0  0  0  0  0
  141.1540  138.0300  146.9390 C   0  0  0  0  0  2  0  0  0  0  0  0
  139.8960  138.1820  147.7860 C   0  0  0  0  0  2  0  0  0  0  0  0
  139.0120  136.1370  148.7500 C   0  0  0  0  0  0  0  0  0  0  0  0
  139.7560  136.2480  149.7240 O   0  0  0  0  0  0  0  0  0  0  0  0
  138.9870  137.0640  147.7260 N   0  0  0  0  0  0  0  0  0  0  0  0
  138.3610  136.9650  146.9730 H   0  0  0  0  0  0  0  0  0  0  0  0
  138.0400  134.9820  148.6130 C   0  0  0  0  0  2  0  0  0  0  0  0
  134.3190  135.5930  149.3510 C   0  0  0  0  0  0  0  0  0  0  0  0
  135.5200  135.3940  148.6600 C   0  0  0  0  0  3  0  0  0  0  0  0
  136.7270  135.1640  149.3430 C   0  0  0  0  0  0  0  0  0  0  0  0
  136.7240  135.1920  150.7460 C   0  0  0  0  0  3  0  0  0  0  0  0
  135.5370  135.4050  151.4470 C   0  0  0  0  0  3  0  0  0  0  0  0
  134.3430  135.5950  150.7510 C   0  0  0  0  0  0  0  0  0  0  0  0
  132.9510  136.9710  147.9690 C   0  0  0  0  0  1  0  0  0  0  0  0
  133.1020  135.7970  148.7590 O   0  0  0  0  0  0  0  0  0  0  0  0
  133.1790  135.7970  151.4420 O   0  0  0  0  0  0  0  0  0  0  0  0
  132.7370  135.0720  151.8370 H   0  0  0  0  0  0  0  0  0  0  0  0
  142.7270  139.6190  149.0070 C   0  0  0  0  0  2  0  0  0  0  0  0
  143.5590  140.1350  150.1980 C   0  0  0  0  0  2  0  0  0  0  0  0
  142.8720  140.0160  151.4690 N   0  0  0  0  0  0  0  0  0  0  0  0
  143.0760  138.9170  152.2790 C   0  0  0  0  0  0  0  0  0  0  0  0
  143.7480  137.9490  151.9300 O   0  0  0  0  0  0  0  0  0  0  0  0
  142.2530  140.7270  151.7560 H   0  0  0  0  0  0  0  0  0  0  0  0
  142.4310  139.0030  153.6510 C   0  0  0  0  0  2  0  0  0  0  0  0
  140.9800  138.5770  153.7040 C   0  0  0  0  0  0  0  0  0  0  0  0
  140.2990  138.0850  152.5850 C   0  0  0  0  0  3  0  0  0  0  0  0
  138.9530  137.7210  152.6740 C   0  0  0  0  0  3  0  0  0  0  0  0
  138.2570  137.8650  153.8770 C   0  0  0  0  0  0  0  0  0  0  0  0
  138.8990  138.3980  155.0000 C   0  0  0  0  0  0  0  0  0  0  0  0
  140.2540  138.7500  154.8960 C   0  0  0  0  0  3  0  0  0  0  0  0
  136.9480  137.4740  153.9170 O   0  0  0  0  0  0  0  0  0  0  0  0
  136.6290  136.8410  153.3030 H   0  0  0  0  0  0  0  0  0  0  0  0
  138.3750  138.6440  156.2410 O   0  0  0  0  0  0  0  0  0  0  0  0
  138.3590  137.5820  157.1830 C   0  0  0  0  0  1  0  0  0  0  0  0
  1  3  1  0  0  0  0
  1  2  1  0  0  0  0
  4  1  1  0  0  0  0
  5  6  1  0  0  0  0
  5  4  1  0  0  0  0
  7  8  2  0  0  0  0
  9  6  1  0  0  0  0
  9  7  1  0  0  0  0
 10  9  1  0  0  0  0
 11  7  1  0  0  0  0
 11 14  1  0  0  0  0
 12 17  1  0  0  0  0
 13 14  1  0  0  0  0
 13 12  2  0  0  0  0
 14 15  2  0  0  0  0
 15 16  1  0  0  0  0
 17 20  1  0  0  0  0
 17 16  2  0  0  0  0
 18 19  1  0  0  0  0
 19 12  1  0  0  0  0
 20 21  1  0  0  0  0
 22  1  1  0  0  0  0
 22 23  1  0  0  0  0
 23 24  1  0  0  0  0
 24 27  1  0  0  0  0
 24 25  1  0  0  0  0
 25 28  1  0  0  0  0
 26 25  2  0  0  0  0
 28 29  1  0  0  0  0
 29 34  1  0  0  0  0
 30 31  1  0  0  0  0
 30 29  2  0  0  0  0
 31 32  2  0  0  0  0
 32 35  1  0  0  0  0
 32 33  1  0  0  0  0
 33 37  1  0  0  0  0
 34 33  2  0  0  0  0
 36 35  1  0  0  0  0
 37 38  1  0  0  0  0
M  END
>  <MODEL>
4

>  <REMARK>
 VINA RESULT:    -5.766      4.222      6.852
 INTER + INTRA:         -12.471
 INTER:                 -10.778
 INTRA:                  -1.693
 UNBOUND:                -1.986
  Name = CHEMBL2314240
  17 active torsions:
  status: ('A' for Active; 'I' for Inactive)
    1  A    between atoms: C_1  and  O_2
    2  A    between atoms: O_2  and  C_3
    3  A    between atoms: C_5  and  C_6
    4  A    between atoms: C_6  and  C_7
    5  A    between atoms: N_9  and  C_10
    6  A    between atoms: C_10  and  C_11
    7  A    between atoms: C_11  and  C_12
    8  A    between atoms: C_12  and  N_13
    9  A    between atoms: N_13  and  C_14
   10  A    between atoms: C_14  and  C_15
   11  A    between atoms: C_15  and  N_16
   12  A    between atoms: C_17  and  C_19
   13  A    between atoms: C_19  and  C_20
   14  A    between atoms: C_23  and  O_24
   15  A    between atoms: C_25  and  O_26
   16  A    between atoms: O_26  and  C_27
   17  A    between atoms: C_31  and  O_32
                            x       y       z     vdW  Elec       q    Type
                         _______ _______ _______ _____ _____    ______ ____

>  <TORSDO>
F 15

>  <SCORE>
-5.766

>  <RMSD_LB>
4.222

>  <RMSD_UB>
6.852

$$$$
CHEMBL2314240
 OpenBabel10162523523D

 38 39  0  0  0  0  0  0  0  0999 V2000
  146.4310  139.2440  146.7350 N   0  0  0  0  0  4  0  0  0  0  0  0
  146.8860  139.8870  146.0880 H   0  0  0  0  0  0  0  0  0  0  0  0
  147.1310  138.7180  147.2590 H   0  0  0  0  0  0  0  0  0  0  0  0
  145.6010  138.3050  145.9790 C   0  0  0  0  0  2  0  0  0  0  0  0
  145.5760  136.9090  146.6030 C   0  0  0  0  0  2  0  0  0  0  0  0
  144.1150  136.5260  146.8040 C   0  0  0  0  0  2  0  0  0  0  0  0
  143.1640  137.2330  148.9220 C   0  0  0  0  0  0  0  0  0  0  0  0
  142.9170  138.3490  148.4650 O   0  0  0  0  0  0  0  0  0  0  0  0
  143.7470  136.2340  148.1680 N   0  0  0  0  0  0  0  0  0  0  0  0
  143.9080  135.3420  148.5520 H   0  0  0  0  0  0  0  0  0  0  0  0
  142.8190  136.8590  150.3510 C   0  0  0  0  0  2  0  0  0  0  0  0
  139.6610  137.6560  152.3900 C   0  0  0  0  0  0  0  0  0  0  0  0
  141.0040  137.4780  152.0380 C   0  0  0  0  0  3  0  0  0  0  0  0
  141.3750  137.0910  150.7380 C   0  0  0  0  0  0  0  0  0  0  0  0
  140.3640  136.8280  149.8000 C   0  0  0  0  0  3  0  0  0  0  0  0
  139.0210  136.9870  150.1420 C   0  0  0  0  0  3  0  0  0  0  0  0
  138.6770  137.4060  151.4270 C   0  0  0  0  0  0  0  0  0  0  0  0
  139.8580  139.1880  154.2050 C   0  0  0  0  0  1  0  0  0  0  0  0
  139.2240  138.0550  153.6250 O   0  0  0  0  0  0  0  0  0  0  0  0
  137.3580  137.5680  151.7570 O   0  0  0  0  0  0  0  0  0  0  0  0
  137.0990  137.5820  152.6570 H   0  0  0  0  0  0  0  0  0  0  0  0
  145.6040  140.0160  147.6860 C   0  0  0  0  0  2  0  0  0  0  0  0
  146.3510  141.1840  148.3600 C   0  0  0  0  0  2  0  0  0  0  0  0
  146.3570  141.1000  149.8060 N   0  0  0  0  0  0  0  0  0  0  0  0
  146.1080  142.2170  150.5780 C   0  0  0  0  0  0  0  0  0  0  0  0
  145.9790  143.3410  150.0980 O   0  0  0  0  0  0  0  0  0  0  0  0
  146.5410  140.2360  150.2440 H   0  0  0  0  0  0  0  0  0  0  0  0
  145.9730  141.9520  152.0670 C   0  0  0  0  0  2  0  0  0  0  0  0
  145.7800  140.4990  152.4430 C   0  0  0  0  0  0  0  0  0  0  0  0
  144.5300  139.9660  152.7740 C   0  0  0  0  0  3  0  0  0  0  0  0
  144.4020  138.6220  153.1340 C   0  0  0  0  0  3  0  0  0  0  0  0
  145.5250  137.7930  153.1930 C   0  0  0  0  0  0  0  0  0  0  0  0
  146.7940  138.3090  152.9140 C   0  0  0  0  0  0  0  0  0  0  0  0
  146.9050  139.6600  152.5440 C   0  0  0  0  0  3  0  0  0  0  0  0
  145.3420  136.4810  153.5300 O   0  0  0  0  0  0  0  0  0  0  0  0
  145.5300  135.8070  152.9060 H   0  0  0  0  0  0  0  0  0  0  0  0
  148.0020  137.6650  152.9550 O   0  0  0  0  0  0  0  0  0  0  0  0
  148.8140  137.8370  154.1060 C   0  0  0  0  0  1  0  0  0  0  0  0
  1  3  1  0  0  0  0
  1 22  1  0  0  0  0
  2  1  1  0  0  0  0
  4  5  1  0  0  0  0
  4  1  1  0  0  0  0
  5  6  1  0  0  0  0
  6  9  1  0  0  0  0
  7 11  1  0  0  0  0
  8  7  2  0  0  0  0
  9 10  1  0  0  0  0
  9  7  1  0  0  0  0
 11 14  1  0  0  0  0
 12 19  1  0  0  0  0
 13 12  1  0  0  0  0
 14 13  2  0  0  0  0
 15 16  2  0  0  0  0
 15 14  1  0  0  0  0
 16 17  1  0  0  0  0
 17 20  1  0  0  0  0
 17 12  2  0  0  0  0
 19 18  1  0  0  0  0
 20 21  1  0  0  0  0
 22 23  1  0  0  0  0
 23 24  1  0  0  0  0
 24 27  1  0  0  0  0
 24 25  1  0  0  0  0
 25 28  1  0  0  0  0
 26 25  2  0  0  0  0
 28 29  1  0  0  0  0
 29 34  2  0  0  0  0
 29 30  1  0  0  0  0
 30 31  2  0  0  0  0
 31 32  1  0  0  0  0
 32 35  1  0  0  0  0
 33 37  1  0  0  0  0
 33 32  2  0  0  0  0
 34 33  1  0  0  0  0
 36 35  1  0  0  0  0
 37 38  1  0  0  0  0
M  END
>  <MODEL>
5

>  <REMARK>
 VINA RESULT:    -5.241      1.567      2.226
 INTER + INTRA:         -11.517
 INTER:                 -10.034
 INTRA:                  -1.483
 UNBOUND:                -1.986
  Name = CHEMBL2314240
  17 active torsions:
  status: ('A' for Active; 'I' for Inactive)
    1  A    between atoms: C_1  and  O_2
    2  A    between atoms: O_2  and  C_3
    3  A    between atoms: C_5  and  C_6
    4  A    between atoms: C_6  and  C_7
    5  A    between atoms: N_9  and  C_10
    6  A    between atoms: C_10  and  C_11
    7  A    between atoms: C_11  and  C_12
    8  A    between atoms: C_12  and  N_13
    9  A    between atoms: N_13  and  C_14
   10  A    between atoms: C_14  and  C_15
   11  A    between atoms: C_15  and  N_16
   12  A    between atoms: C_17  and  C_19
   13  A    between atoms: C_19  and  C_20
   14  A    between atoms: C_23  and  O_24
   15  A    between atoms: C_25  and  O_26
   16  A    between atoms: O_26  and  C_27
   17  A    between atoms: C_31  and  O_32
                            x       y       z     vdW  Elec       q    Type
                         _______ _______ _______ _____ _____    ______ ____

>  <TORSDO>
F 15

>  <SCORE>
-5.241

>  <RMSD_LB>
1.567

>  <RMSD_UB>
2.226

$$$$
CHEMBL2314240
 OpenBabel10162523523D

 38 39  0  0  0  0  0  0  0  0999 V2000
  147.1520  137.8890  147.7780 N   0  0  0  0  0  4  0  0  0  0  0  0
  146.4850  137.1990  147.4360 H   0  0  0  0  0  0  0  0  0  0  0  0
  148.0580  137.4500  147.9440 H   0  0  0  0  0  0  0  0  0  0  0  0
  146.6610  138.4520  149.0370 C   0  0  0  0  0  2  0  0  0  0  0  0
  145.6450  139.5740  148.8220 C   0  0  0  0  0  2  0  0  0  0  0  0
  144.9460  139.8170  150.1540 C   0  0  0  0  0  2  0  0  0  0  0  0
  142.9240  138.7600  150.9820 C   0  0  0  0  0  0  0  0  0  0  0  0
  142.2690  139.7760  150.7500 O   0  0  0  0  0  0  0  0  0  0  0  0
  144.2730  138.6650  150.7030 N   0  0  0  0  0  0  0  0  0  0  0  0
  144.7640  137.8290  150.8730 H   0  0  0  0  0  0  0  0  0  0  0  0
  142.2870  137.5160  151.5700 C   0  0  0  0  0  2  0  0  0  0  0  0
  139.7950  138.1940  154.4160 C   0  0  0  0  0  0  0  0  0  0  0  0
  140.9930  138.0050  153.7170 C   0  0  0  0  0  3  0  0  0  0  0  0
  141.0030  137.7580  152.3340 C   0  0  0  0  0  0  0  0  0  0  0  0
  139.7760  137.6460  151.6610 C   0  0  0  0  0  3  0  0  0  0  0  0
  138.5730  137.8170  152.3480 C   0  0  0  0  0  3  0  0  0  0  0  0
  138.5880  138.0970  153.7140 C   0  0  0  0  0  0  0  0  0  0  0  0
  140.3880  137.5860  156.6430 C   0  0  0  0  0  1  0  0  0  0  0  0
  139.7060  138.4640  155.7550 O   0  0  0  0  0  0  0  0  0  0  0  0
  137.4060  138.2710  154.3840 O   0  0  0  0  0  0  0  0  0  0  0  0
  137.0470  137.5700  154.8900 H   0  0  0  0  0  0  0  0  0  0  0  0
  147.3150  138.9520  146.7650 C   0  0  0  0  0  2  0  0  0  0  0  0
  146.7900  138.5680  145.3670 C   0  0  0  0  0  2  0  0  0  0  0  0
  145.9020  137.4230  145.3840 N   0  0  0  0  0  0  0  0  0  0  0  0
  144.5360  137.5900  145.2850 C   0  0  0  0  0  0  0  0  0  0  0  0
  143.9990  138.6960  145.2880 O   0  0  0  0  0  0  0  0  0  0  0  0
  146.2780  136.5160  145.4680 H   0  0  0  0  0  0  0  0  0  0  0  0
  143.7400  136.3040  145.1420 C   0  0  0  0  0  2  0  0  0  0  0  0
  142.6200  136.1310  146.1440 C   0  0  0  0  0  0  0  0  0  0  0  0
  142.8520  135.7960  147.4820 C   0  0  0  0  0  3  0  0  0  0  0  0
  141.7860  135.6260  148.3690 C   0  0  0  0  0  3  0  0  0  0  0  0
  140.4670  135.7640  147.9270 C   0  0  0  0  0  0  0  0  0  0  0  0
  140.2030  136.0510  146.5850 C   0  0  0  0  0  0  0  0  0  0  0  0
  141.2860  136.2280  145.7090 C   0  0  0  0  0  3  0  0  0  0  0  0
  139.4610  135.6090  148.8400 O   0  0  0  0  0  0  0  0  0  0  0  0
  139.6450  135.2420  149.6830 H   0  0  0  0  0  0  0  0  0  0  0  0
  138.9880  136.1860  145.9680 O   0  0  0  0  0  0  0  0  0  0  0  0
  138.3800  137.4700  145.9600 C   0  0  0  0  0  1  0  0  0  0  0  0
  1  3  1  0  0  0  0
  1  4  1  0  0  0  0
  2  1  1  0  0  0  0
  5  4  1  0  0  0  0
  5  6  1  0  0  0  0
  6  9  1  0  0  0  0
  7 11  1  0  0  0  0
  8  7  2  0  0  0  0
  9 10  1  0  0  0  0
  9  7  1  0  0  0  0
 11 14  1  0  0  0  0
 12 19  1  0  0  0  0
 13 12  1  0  0  0  0
 14 13  2  0  0  0  0
 15 14  1  0  0  0  0
 15 16  2  0  0  0  0
 16 17  1  0  0  0  0
 17 20  1  0  0  0  0
 17 12  2  0  0  0  0
 19 18  1  0  0  0  0
 20 21  1  0  0  0  0
 22  1  1  0  0  0  0
 23 24  1  0  0  0  0
 23 22  1  0  0  0  0
 24 27  1  0  0  0  0
 25 26  2  0  0  0  0
 25 24  1  0  0  0  0
 28 25  1  0  0  0  0
 28 29  1  0  0  0  0
 29 30  1  0  0  0  0
 30 31  2  0  0  0  0
 32 31  1  0  0  0  0
 32 35  1  0  0  0  0
 33 32  2  0  0  0  0
 34 29  2  0  0  0  0
 34 33  1  0  0  0  0
 35 36  1  0  0  0  0
 37 33  1  0  0  0  0
 38 37  1  0  0  0  0
M  END
>  <MODEL>
6

>  <REMARK>
 VINA RESULT:    -5.118      3.060      6.118
 INTER + INTRA:         -11.292
 INTER:                  -9.595
 INTRA:                  -1.697
 UNBOUND:                -1.986
  Name = CHEMBL2314240
  17 active torsions:
  status: ('A' for Active; 'I' for Inactive)
    1  A    between atoms: C_1  and  O_2
    2  A    between atoms: O_2  and  C_3
    3  A    between atoms: C_5  and  C_6
    4  A    between atoms: C_6  and  C_7
    5  A    between atoms: N_9  and  C_10
    6  A    between atoms: C_10  and  C_11
    7  A    between atoms: C_11  and  C_12
    8  A    between atoms: C_12  and  N_13
    9  A    between atoms: N_13  and  C_14
   10  A    between atoms: C_14  and  C_15
   11  A    between atoms: C_15  and  N_16
   12  A    between atoms: C_17  and  C_19
   13  A    between atoms: C_19  and  C_20
   14  A    between atoms: C_23  and  O_24
   15  A    between atoms: C_25  and  O_26
   16  A    between atoms: O_26  and  C_27
   17  A    between atoms: C_31  and  O_32
                            x       y       z     vdW  Elec       q    Type
                         _______ _______ _______ _____ _____    ______ ____

>  <TORSDO>
F 15

>  <SCORE>
-5.118

>  <RMSD_LB>
3.060

>  <RMSD_UB>
6.118

$$$$
CHEMBL2314240
 OpenBabel10162523523D

 38 39  0  0  0  0  0  0  0  0999 V2000
  148.1460  136.7370  147.7020 N   0  0  0  0  0  4  0  0  0  0  0  0
  147.9370  136.6010  146.7130 H   0  0  0  0  0  0  0  0  0  0  0  0
  148.9970  137.2890  147.8090 H   0  0  0  0  0  0  0  0  0  0  0  0
  148.3430  135.4330  148.3370 C   0  0  0  0  0  2  0  0  0  0  0  0
  147.1950  134.4630  148.0550 C   0  0  0  0  0  2  0  0  0  0  0  0
  147.8110  133.0960  147.7820 C   0  0  0  0  0  2  0  0  0  0  0  0
  149.9960  132.0900  147.4550 C   0  0  0  0  0  0  0  0  0  0  0  0
  149.5770  131.4340  146.5010 O   0  0  0  0  0  0  0  0  0  0  0  0
  149.1980  132.9710  148.1570 N   0  0  0  0  0  0  0  0  0  0  0  0
  149.5680  133.5040  148.8980 H   0  0  0  0  0  0  0  0  0  0  0  0
  151.4380  132.0010  147.9140 C   0  0  0  0  0  2  0  0  0  0  0  0
  152.9950  128.5510  147.2530 C   0  0  0  0  0  0  0  0  0  0  0  0
  152.5490  129.8640  147.0650 C   0  0  0  0  0  3  0  0  0  0  0  0
  151.9580  130.5930  148.1110 C   0  0  0  0  0  0  0  0  0  0  0  0
  151.7680  129.9610  149.3490 C   0  0  0  0  0  3  0  0  0  0  0  0
  152.1940  128.6470  149.5470 C   0  0  0  0  0  3  0  0  0  0  0  0
  152.8110  127.9530  148.5060 C   0  0  0  0  0  0  0  0  0  0  0  0
  153.2260  128.0190  144.9410 C   0  0  0  0  0  1  0  0  0  0  0  0
  153.6030  127.7860  146.2930 O   0  0  0  0  0  0  0  0  0  0  0  0
  153.2350  126.6670  148.7050 O   0  0  0  0  0  0  0  0  0  0  0  0
  154.1410  126.4910  148.8650 H   0  0  0  0  0  0  0  0  0  0  0  0
  147.0260  137.4590  148.3410 C   0  0  0  0  0  2  0  0  0  0  0  0
  146.4870  138.6390  147.5070 C   0  0  0  0  0  2  0  0  0  0  0  0
  146.7340  139.9300  148.1170 N   0  0  0  0  0  0  0  0  0  0  0  0
  145.7270  140.5990  148.7840 C   0  0  0  0  0  0  0  0  0  0  0  0
  144.5650  140.2010  148.8040 O   0  0  0  0  0  0  0  0  0  0  0  0
  147.6310  140.3340  148.0550 H   0  0  0  0  0  0  0  0  0  0  0  0
  146.1670  141.8520  149.5200 C   0  0  0  0  0  2  0  0  0  0  0  0
  147.0350  141.6080  150.7350 C   0  0  0  0  0  0  0  0  0  0  0  0
  148.2630  142.2510  150.9240 C   0  0  0  0  0  3  0  0  0  0  0  0
  149.0430  141.9800  152.0520 C   0  0  0  0  0  3  0  0  0  0  0  0
  148.6190  141.0440  152.9990 C   0  0  0  0  0  0  0  0  0  0  0  0
  147.4190  140.3510  152.8130 C   0  0  0  0  0  0  0  0  0  0  0  0
  146.6430  140.6420  151.6790 C   0  0  0  0  0  3  0  0  0  0  0  0
  149.4070  140.8320  154.0950 O   0  0  0  0  0  0  0  0  0  0  0  0
  150.3380  140.7700  153.9990 H   0  0  0  0  0  0  0  0  0  0  0  0
  146.8640  139.3820  153.6060 O   0  0  0  0  0  0  0  0  0  0  0  0
  146.3300  138.2270  152.9780 C   0  0  0  0  0  1  0  0  0  0  0  0
  1  3  1  0  0  0  0
  1  4  1  0  0  0  0
  1 22  1  0  0  0  0
  2  1  1  0  0  0  0
  5  4  1  0  0  0  0
  6  5  1  0  0  0  0
  6  9  1  0  0  0  0
  7 11  1  0  0  0  0
  7  9  1  0  0  0  0
  8  7  2  0  0  0  0
  9 10  1  0  0  0  0
 11 14  1  0  0  0  0
 12 17  1  0  0  0  0
 13 12  2  0  0  0  0
 13 14  1  0  0  0  0
 14 15  2  0  0  0  0
 15 16  1  0  0  0  0
 17 20  1  0  0  0  0
 17 16  2  0  0  0  0
 18 19  1  0  0  0  0
 19 12  1  0  0  0  0
 20 21  1  0  0  0  0
 23 24  1  0  0  0  0
 23 22  1  0  0  0  0
 24 25  1  0  0  0  0
 25 26  2  0  0  0  0
 25 28  1  0  0  0  0
 27 24  1  0  0  0  0
 28 29  1  0  0  0  0
 29 30  2  0  0  0  0
 29 34  1  0  0  0  0
 30 31  1  0  0  0  0
 31 32  2  0  0  0  0
 32 35  1  0  0  0  0
 33 32  1  0  0  0  0
 33 37  1  0  0  0  0
 34 33  2  0  0  0  0
 36 35  1  0  0  0  0
 38 37  1  0  0  0  0
M  END
>  <MODEL>
7

>  <REMARK>
 VINA RESULT:    -4.966      7.165      9.883
 INTER + INTRA:         -11.016
 INTER:                 -10.116
 INTRA:                  -0.900
 UNBOUND:                -1.986
  Name = CHEMBL2314240
  17 active torsions:
  status: ('A' for Active; 'I' for Inactive)
    1  A    between atoms: C_1  and  O_2
    2  A    between atoms: O_2  and  C_3
    3  A    between atoms: C_5  and  C_6
    4  A    between atoms: C_6  and  C_7
    5  A    between atoms: N_9  and  C_10
    6  A    between atoms: C_10  and  C_11
    7  A    between atoms: C_11  and  C_12
    8  A    between atoms: C_12  and  N_13
    9  A    between atoms: N_13  and  C_14
   10  A    between atoms: C_14  and  C_15
   11  A    between atoms: C_15  and  N_16
   12  A    between atoms: C_17  and  C_19
   13  A    between atoms: C_19  and  C_20
   14  A    between atoms: C_23  and  O_24
   15  A    between atoms: C_25  and  O_26
   16  A    between atoms: O_26  and  C_27
   17  A    between atoms: C_31  and  O_32
                            x       y       z     vdW  Elec       q    Type
                         _______ _______ _______ _____ _____    ______ ____

>  <TORSDO>
F 15

>  <SCORE>
-4.966

>  <RMSD_LB>
7.165

>  <RMSD_UB>
9.883

$$$$
CHEMBL2314240
 OpenBabel10162523523D

 38 39  0  0  0  0  0  0  0  0999 V2000
  146.0400  139.1700  146.7890 N   0  0  0  0  0  4  0  0  0  0  0  0
  146.0020  138.2020  146.4700 H   0  0  0  0  0  0  0  0  0  0  0  0
  146.7470  139.6860  146.2650 H   0  0  0  0  0  0  0  0  0  0  0  0
  146.3910  139.1960  148.2100 C   0  0  0  0  0  2  0  0  0  0  0  0
  147.0870  137.9130  148.6660 C   0  0  0  0  0  2  0  0  0  0  0  0
  146.0030  136.9440  149.1220 C   0  0  0  0  0  2  0  0  0  0  0  0
  144.1220  136.9060  150.6560 C   0  0  0  0  0  0  0  0  0  0  0  0
  143.4160  136.3550  149.8120 O   0  0  0  0  0  0  0  0  0  0  0  0
  145.4450  137.2280  150.4210 N   0  0  0  0  0  0  0  0  0  0  0  0
  145.9940  137.6420  151.1250 H   0  0  0  0  0  0  0  0  0  0  0  0
  143.6000  137.2470  152.0380 C   0  0  0  0  0  2  0  0  0  0  0  0
  145.7780  139.8730  153.8050 C   0  0  0  0  0  0  0  0  0  0  0  0
  144.8170  139.2880  152.9720 C   0  0  0  0  0  3  0  0  0  0  0  0
  144.6090  137.8980  152.9580 C   0  0  0  0  0  0  0  0  0  0  0  0
  145.4260  137.0870  153.7600 C   0  0  0  0  0  3  0  0  0  0  0  0
  146.3980  137.6550  154.5840 C   0  0  0  0  0  3  0  0  0  0  0  0
  146.5640  139.0400  154.6090 C   0  0  0  0  0  0  0  0  0  0  0  0
  146.0810  141.9500  152.6750 C   0  0  0  0  0  1  0  0  0  0  0  0
  146.0210  141.2180  153.8940 O   0  0  0  0  0  0  0  0  0  0  0  0
  147.5140  139.5950  155.4240 O   0  0  0  0  0  0  0  0  0  0  0  0
  148.2720  139.9990  155.0520 H   0  0  0  0  0  0  0  0  0  0  0  0
  144.7240  139.8060  146.5690 C   0  0  0  0  0  2  0  0  0  0  0  0
  143.6140  139.2860  147.5050 C   0  0  0  0  0  2  0  0  0  0  0  0
  143.2420  137.9110  147.2400 N   0  0  0  0  0  0  0  0  0  0  0  0
  142.2880  137.6090  146.2890 C   0  0  0  0  0  0  0  0  0  0  0  0
  141.6370  138.4720  145.7040 O   0  0  0  0  0  0  0  0  0  0  0  0
  143.6740  137.1830  147.7450 H   0  0  0  0  0  0  0  0  0  0  0  0
  142.1220  136.1290  145.9930 C   0  0  0  0  0  2  0  0  0  0  0  0
  143.1880  135.5320  145.1010 C   0  0  0  0  0  0  0  0  0  0  0  0
  144.0930  134.5660  145.5530 C   0  0  0  0  0  3  0  0  0  0  0  0
  145.0760  134.0560  144.7000 C   0  0  0  0  0  3  0  0  0  0  0  0
  145.1850  134.5210  143.3870 C   0  0  0  0  0  0  0  0  0  0  0  0
  144.3250  135.5200  142.9210 C   0  0  0  0  0  0  0  0  0  0  0  0
  143.3380  136.0150  143.7880 C   0  0  0  0  0  3  0  0  0  0  0  0
  146.1490  133.9730  142.5860 O   0  0  0  0  0  0  0  0  0  0  0  0
  146.8680  134.4980  142.2930 H   0  0  0  0  0  0  0  0  0  0  0  0
  144.3050  136.1190  141.6900 O   0  0  0  0  0  0  0  0  0  0  0  0
  143.5420  135.5070  140.6600 C   0  0  0  0  0  1  0  0  0  0  0  0
  1  4  1  0  0  0  0
  2  1  1  0  0  0  0
  3  1  1  0  0  0  0
  4  5  1  0  0  0  0
  5  6  1  0  0  0  0
  6  9  1  0  0  0  0
  7 11  1  0  0  0  0
  8  7  2  0  0  0  0
  9  7  1  0  0  0  0
  9 10  1  0  0  0  0
 11 14  1  0  0  0  0
 12 19  1  0  0  0  0
 12 17  1  0  0  0  0
 13 12  2  0  0  0  0
 14 13  1  0  0  0  0
 14 15  2  0  0  0  0
 15 16  1  0  0  0  0
 16 17  2  0  0  0  0
 17 20  1  0  0  0  0
 18 19  1  0  0  0  0
 21 20  1  0  0  0  0
 22  1  1  0  0  0  0
 22 23  1  0  0  0  0
 24 23  1  0  0  0  0
 24 27  1  0  0  0  0
 25 24  1  0  0  0  0
 26 25  2  0  0  0  0
 28 25  1  0  0  0  0
 29 30  1  0  0  0  0
 29 28  1  0  0  0  0
 31 30  2  0  0  0  0
 32 31  1  0  0  0  0
 33 32  2  0  0  0  0
 33 34  1  0  0  0  0
 34 29  2  0  0  0  0
 35 32  1  0  0  0  0
 36 35  1  0  0  0  0
 37 33  1  0  0  0  0
 38 37  1  0  0  0  0
M  END
>  <MODEL>
8

>  <REMARK>
 VINA RESULT:    -4.812      3.442      7.779
 INTER + INTRA:         -10.737
 INTER:                  -9.203
 INTRA:                  -1.534
 UNBOUND:                -1.986
  Name = CHEMBL2314240
  17 active torsions:
  status: ('A' for Active; 'I' for Inactive)
    1  A    between atoms: C_1  and  O_2
    2  A    between atoms: O_2  and  C_3
    3  A    between atoms: C_5  and  C_6
    4  A    between atoms: C_6  and  C_7
    5  A    between atoms: N_9  and  C_10
    6  A    between atoms: C_10  and  C_11
    7  A    between atoms: C_11  and  C_12
    8  A    between atoms: C_12  and  N_13
    9  A    between atoms: N_13  and  C_14
   10  A    between atoms: C_14  and  C_15
   11  A    between atoms: C_15  and  N_16
   12  A    between atoms: C_17  and  C_19
   13  A    between atoms: C_19  and  C_20
   14  A    between atoms: C_23  and  O_24
   15  A    between atoms: C_25  and  O_26
   16  A    between atoms: O_26  and  C_27
   17  A    between atoms: C_31  and  O_32
                            x       y       z     vdW  Elec       q    Type
                         _______ _______ _______ _____ _____    ______ ____

>  <TORSDO>
F 15

>  <SCORE>
-4.812

>  <RMSD_LB>
3.442

>  <RMSD_UB>
7.779

$$$$
CHEMBL2314240
 OpenBabel10162523523D

 38 39  0  0  0  0  0  0  0  0999 V2000
  138.9050  139.9710  141.1260 N   0  0  0  0  0  4  0  0  0  0  0  0
  138.3890  139.8960  142.0030 H   0  0  0  0  0  0  0  0  0  0  0  0
  139.8870  139.7370  141.2740 H   0  0  0  0  0  0  0  0  0  0  0  0
  138.8140  141.3450  140.6300 C   0  0  0  0  0  2  0  0  0  0  0  0
  137.3750  141.8600  140.5840 C   0  0  0  0  0  2  0  0  0  0  0  0
  136.8330  141.8230  142.0080 C   0  0  0  0  0  2  0  0  0  0  0  0
  135.7060  139.8200  142.7900 C   0  0  0  0  0  0  0  0  0  0  0  0
  136.7640  139.3680  143.2280 O   0  0  0  0  0  0  0  0  0  0  0  0
  135.6240  141.0550  142.1760 N   0  0  0  0  0  0  0  0  0  0  0  0
  134.7590  141.4030  141.8600 H   0  0  0  0  0  0  0  0  0  0  0  0
  134.3990  139.0630  142.9180 C   0  0  0  0  0  2  0  0  0  0  0  0
  131.8540  138.5610  140.0830 C   0  0  0  0  0  0  0  0  0  0  0  0
  132.4350  138.9740  141.2880 C   0  0  0  0  0  3  0  0  0  0  0  0
  133.7670  138.6560  141.6050 C   0  0  0  0  0  0  0  0  0  0  0  0
  134.5010  137.8620  140.7100 C   0  0  0  0  0  3  0  0  0  0  0  0
  133.9300  137.4310  139.5130 C   0  0  0  0  0  3  0  0  0  0  0  0
  132.6180  137.7870  139.2010 C   0  0  0  0  0  0  0  0  0  0  0  0
  129.5680  138.8350  140.6970 C   0  0  0  0  0  1  0  0  0  0  0  0
  130.5740  138.8530  139.6920 O   0  0  0  0  0  0  0  0  0  0  0  0
  132.0620  137.3690  138.0220 O   0  0  0  0  0  0  0  0  0  0  0  0
  132.4580  136.6700  137.5400 H   0  0  0  0  0  0  0  0  0  0  0  0
  138.3330  139.0270  140.1440 C   0  0  0  0  0  2  0  0  0  0  0  0
  138.9020  137.5980  140.2450 C   0  0  0  0  0  2  0  0  0  0  0  0
  137.8770  136.5750  140.2800 N   0  0  0  0  0  0  0  0  0  0  0  0
  138.1720  135.2960  140.7070 C   0  0  0  0  0  0  0  0  0  0  0  0
  139.3150  134.9300  140.9710 O   0  0  0  0  0  0  0  0  0  0  0  0
  136.9590  136.7950  139.9950 H   0  0  0  0  0  0  0  0  0  0  0  0
  136.9720  134.3770  140.8580 C   0  0  0  0  0  2  0  0  0  0  0  0
  136.9520  133.5550  142.1290 C   0  0  0  0  0  0  0  0  0  0  0  0
  137.3880  132.2270  142.1730 C   0  0  0  0  0  3  0  0  0  0  0  0
  137.3330  131.4990  143.3650 C   0  0  0  0  0  3  0  0  0  0  0  0
  136.8190  132.0800  144.5270 C   0  0  0  0  0  0  0  0  0  0  0  0
  136.3320  133.3900  144.5020 C   0  0  0  0  0  0  0  0  0  0  0  0
  136.4030  134.1110  143.2980 C   0  0  0  0  0  3  0  0  0  0  0  0
  136.8080  131.3320  145.6720 O   0  0  0  0  0  0  0  0  0  0  0  0
  136.7420  131.7550  146.5070 H   0  0  0  0  0  0  0  0  0  0  0  0
  135.7650  134.1060  145.5220 O   0  0  0  0  0  0  0  0  0  0  0  0
  134.6300  134.9080  145.2270 C   0  0  0  0  0  1  0  0  0  0  0  0
  1  3  1  0  0  0  0
  1  2  1  0  0  0  0
  4  1  1  0  0  0  0
  5  4  1  0  0  0  0
  5  6  1  0  0  0  0
  6  9  1  0  0  0  0
  7 11  1  0  0  0  0
  7  8  2  0  0  0  0
  9  7  1  0  0  0  0
 10  9  1  0  0  0  0
 12 13  1  0  0  0  0
 13 14  2  0  0  0  0
 14 11  1  0  0  0  0
 15 14  1  0  0  0  0
 16 15  2  0  0  0  0
 17 16  1  0  0  0  0
 17 12  2  0  0  0  0
 19 12  1  0  0  0  0
 19 18  1  0  0  0  0
 20 17  1  0  0  0  0
 21 20  1  0  0  0  0
 22 23  1  0  0  0  0
 22  1  1  0  0  0  0
 23 24  1  0  0  0  0
 24 25  1  0  0  0  0
 25 28  1  0  0  0  0
 25 26  2  0  0  0  0
 27 24  1  0  0  0  0
 28 29  1  0  0  0  0
 29 30  2  0  0  0  0
 29 34  1  0  0  0  0
 30 31  1  0  0  0  0
 31 32  2  0  0  0  0
 32 35  1  0  0  0  0
 33 32  1  0  0  0  0
 33 37  1  0  0  0  0
 34 33  2  0  0  0  0
 35 36  1  0  0  0  0
 38 37  1  0  0  0  0
M  END
>  <MODEL>
9

>  <REMARK>
 VINA RESULT:    -4.778     12.010     14.308
 INTER + INTRA:         -10.675
 INTER:                  -8.689
 INTRA:                  -1.986
 UNBOUND:                -1.986
  Name = CHEMBL2314240
  17 active torsions:
  status: ('A' for Active; 'I' for Inactive)
    1  A    between atoms: C_1  and  O_2
    2  A    between atoms: O_2  and  C_3
    3  A    between atoms: C_5  and  C_6
    4  A    between atoms: C_6  and  C_7
    5  A    between atoms: N_9  and  C_10
    6  A    between atoms: C_10  and  C_11
    7  A    between atoms: C_11  and  C_12
    8  A    between atoms: C_12  and  N_13
    9  A    between atoms: N_13  and  C_14
   10  A    between atoms: C_14  and  C_15
   11  A    between atoms: C_15  and  N_16
   12  A    between atoms: C_17  and  C_19
   13  A    between atoms: C_19  and  C_20
   14  A    between atoms: C_23  and  O_24
   15  A    between atoms: C_25  and  O_26
   16  A    between atoms: O_26  and  C_27
   17  A    between atoms: C_31  and  O_32
                            x       y       z     vdW  Elec       q    Type
                         _______ _______ _______ _____ _____    ______ ____

>  <TORSDO>
F 15

>  <SCORE>
-4.778

>  <RMSD_LB>
12.010

>  <RMSD_UB>
14.308

$$$$
