CHEMBL2413172
 OpenBabel10162523593D

 25 26  0  0  0  0  0  0  0  0999 V2000
  144.4270  138.1350  152.4830 N   0  0  0  0  0  0  0  0  0  0  0  0
  144.8900  137.8070  153.7390 C   0  0  0  0  0  0  0  0  0  0  0  0
  144.8840  136.6560  154.1710 O   0  0  0  0  0  0  0  0  0  0  0  0
  144.4250  139.0820  152.2120 H   0  0  0  0  0  0  0  0  0  0  0  0
  143.9450  137.1500  151.5490 C   0  0  0  0  0  2  0  0  0  0  0  0
  140.2690  137.7970  152.3840 C   0  0  0  0  0  0  0  0  0  0  0  0
  139.6520  137.4490  151.1810 C   0  0  0  0  0  3  0  0  0  0  0  0
  140.4210  136.9990  150.1050 C   0  0  0  0  0  3  0  0  0  0  0  0
  141.8080  136.8960  150.2250 C   0  0  0  0  0  3  0  0  0  0  0  0
  142.4460  137.2300  151.4270 C   0  0  0  0  0  0  0  0  0  0  0  0
  141.6620  137.6860  152.4980 C   0  0  0  0  0  3  0  0  0  0  0  0
  140.4610  138.8250  154.5150 C   0  0  0  0  0  1  0  0  0  0  0  0
  139.6350  138.2540  153.5050 O   0  0  0  0  0  0  0  0  0  0  0  0
  145.3750  138.9820  154.5740 C   0  0  0  0  0  2  0  0  0  0  0  0
  146.7950  138.7850  155.1020 C   0  0  0  0  0  2  0  0  0  0  0  0
  147.7400  138.1780  154.0750 C   0  0  0  0  0  2  0  0  0  0  0  0
  148.6720  139.2650  153.5360 C   0  0  0  0  0  2  0  0  0  0  0  0
  148.5820  140.5290  154.3800 C   0  0  0  0  0  2  0  0  0  0  0  0
  148.9370  141.7710  153.5630 C   0  0  0  0  0  2  0  0  0  0  0  0
  147.8760  142.0650  152.5330 C   0  0  0  0  0  0  0  0  0  0  0  0
  146.5260  142.1380  152.9010 C   0  0  0  0  0  3  0  0  0  0  0  0
  145.5450  142.3820  151.9390 C   0  0  0  0  0  3  0  0  0  0  0  0
  145.9030  142.5520  150.6030 C   0  0  0  0  0  3  0  0  0  0  0  0
  147.2430  142.4760  150.2260 C   0  0  0  0  0  3  0  0  0  0  0  0
  148.2260  142.2300  151.1860 C   0  0  0  0  0  3  0  0  0  0  0  0
  1  2  1  0  0  0  0
  2  3  2  0  0  0  0
  2 14  1  0  0  0  0
  4  1  1  0  0  0  0
  5  1  1  0  0  0  0
  6 11  1  0  0  0  0
  6 13  1  0  0  0  0
  7  6  2  0  0  0  0
  8  9  2  0  0  0  0
  8  7  1  0  0  0  0
  9 10  1  0  0  0  0
 10  5  1  0  0  0  0
 10 11  2  0  0  0  0
 13 12  1  0  0  0  0
 14 15  1  0  0  0  0
 16 15  1  0  0  0  0
 17 16  1  0  0  0  0
 17 18  1  0  0  0  0
 19 18  1  0  0  0  0
 20 21  1  0  0  0  0
 20 19  1  0  0  0  0
 22 21  2  0  0  0  0
 23 22  1  0  0  0  0
 24 23  2  0  0  0  0
 24 25  1  0  0  0  0
 25 20  2  0  0  0  0
M  END
>  <MODEL>
1

>  <REMARK>
 VINA RESULT:    -7.425      0.000      0.000
 INTER + INTRA:         -13.269
 INTER:                 -11.964
 INTRA:                  -1.305
 UNBOUND:                -1.503
  Name = CHEMBL2413172
  11 active torsions:
  status: ('A' for Active; 'I' for Inactive)
    1  A    between atoms: C_1  and  O_2
    2  A    between atoms: O_2  and  C_3
    3  A    between atoms: C_7  and  C_8
    4  A    between atoms: C_8  and  N_9
    5  A    between atoms: C_10  and  C_12
    6  A    between atoms: C_12  and  C_13
    7  A    between atoms: C_13  and  C_14
    8  A    between atoms: C_14  and  C_15
    9  A    between atoms: C_15  and  C_16
   10  A    between atoms: C_16  and  C_17
   11  A    between atoms: C_17  and  C_18
                            x       y       z     vdW  Elec       q    Type
                         _______ _______ _______ _____ _____    ______ ____

>  <TORSDO>
F 10

>  <SCORE>
-7.425

>  <RMSD_LB>
0.000

>  <RMSD_UB>
0.000

$$$$
CHEMBL2413172
 OpenBabel10162523593D

 25 26  0  0  0  0  0  0  0  0999 V2000
  144.8290  137.9840  152.4990 N   0  0  0  0  0  0  0  0  0  0  0  0
  145.2090  137.5840  153.7620 C   0  0  0  0  0  0  0  0  0  0  0  0
  145.1100  136.4220  154.1510 O   0  0  0  0  0  0  0  0  0  0  0  0
  144.9000  138.9370  152.2640 H   0  0  0  0  0  0  0  0  0  0  0  0
  144.3320  137.0640  151.5090 C   0  0  0  0  0  2  0  0  0  0  0  0
  140.8200  136.9960  149.9940 C   0  0  0  0  0  0  0  0  0  0  0  0
  140.0500  137.4270  151.0750 C   0  0  0  0  0  3  0  0  0  0  0  0
  140.6630  137.7470  152.2880 C   0  0  0  0  0  3  0  0  0  0  0  0
  142.0470  137.6360  152.4280 C   0  0  0  0  0  3  0  0  0  0  0  0
  142.8410  137.2150  151.3520 C   0  0  0  0  0  0  0  0  0  0  0  0
  142.2100  136.8920  150.1400 C   0  0  0  0  0  3  0  0  0  0  0  0
  140.3800  135.2630  148.4330 C   0  0  0  0  0  1  0  0  0  0  0  0
  140.3440  136.6490  148.7600 O   0  0  0  0  0  0  0  0  0  0  0  0
  145.7270  138.6960  154.6620 C   0  0  0  0  0  2  0  0  0  0  0  0
  147.1270  138.4150  155.2020 C   0  0  0  0  0  2  0  0  0  0  0  0
  148.1240  138.0300  154.1180 C   0  0  0  0  0  2  0  0  0  0  0  0
  148.6150  139.2920  153.4050 C   0  0  0  0  0  2  0  0  0  0  0  0
  148.5890  140.4920  154.3410 C   0  0  0  0  0  2  0  0  0  0  0  0
  148.8870  141.7900  153.5910 C   0  0  0  0  0  2  0  0  0  0  0  0
  147.8560  142.0500  152.5230 C   0  0  0  0  0  0  0  0  0  0  0  0
  148.2420  142.2370  151.1890 C   0  0  0  0  0  3  0  0  0  0  0  0
  147.2870  142.5050  150.2080 C   0  0  0  0  0  3  0  0  0  0  0  0
  145.9390  142.5920  150.5510 C   0  0  0  0  0  3  0  0  0  0  0  0
  145.5450  142.4130  151.8760 C   0  0  0  0  0  3  0  0  0  0  0  0
  146.4990  142.1470  152.8590 C   0  0  0  0  0  3  0  0  0  0  0  0
  1  2  1  0  0  0  0
  2  3  2  0  0  0  0
  2 14  1  0  0  0  0
  4  1  1  0  0  0  0
  5  1  1  0  0  0  0
  6 11  2  0  0  0  0
  6  7  1  0  0  0  0
  7  8  2  0  0  0  0
  8  9  1  0  0  0  0
 10  5  1  0  0  0  0
 10  9  2  0  0  0  0
 11 10  1  0  0  0  0
 12 13  1  0  0  0  0
 13  6  1  0  0  0  0
 14 15  1  0  0  0  0
 16 15  1  0  0  0  0
 17 16  1  0  0  0  0
 17 18  1  0  0  0  0
 19 18  1  0  0  0  0
 20 25  1  0  0  0  0
 20 19  1  0  0  0  0
 21 20  2  0  0  0  0
 22 23  2  0  0  0  0
 22 21  1  0  0  0  0
 23 24  1  0  0  0  0
 24 25  2  0  0  0  0
M  END
>  <MODEL>
2

>  <REMARK>
 VINA RESULT:    -7.290      1.191      2.275
 INTER + INTRA:         -13.054
 INTER:                 -11.930
 INTRA:                  -1.124
 UNBOUND:                -1.503
  Name = CHEMBL2413172
  11 active torsions:
  status: ('A' for Active; 'I' for Inactive)
    1  A    between atoms: C_1  and  O_2
    2  A    between atoms: O_2  and  C_3
    3  A    between atoms: C_7  and  C_8
    4  A    between atoms: C_8  and  N_9
    5  A    between atoms: C_10  and  C_12
    6  A    between atoms: C_12  and  C_13
    7  A    between atoms: C_13  and  C_14
    8  A    between atoms: C_14  and  C_15
    9  A    between atoms: C_15  and  C_16
   10  A    between atoms: C_16  and  C_17
   11  A    between atoms: C_17  and  C_18
                            x       y       z     vdW  Elec       q    Type
                         _______ _______ _______ _____ _____    ______ ____

>  <TORSDO>
F 10

>  <SCORE>
-7.290

>  <RMSD_LB>
1.191

>  <RMSD_UB>
2.275

$$$$
CHEMBL2413172
 OpenBabel10162523593D

 25 26  0  0  0  0  0  0  0  0999 V2000
  138.6970  137.8160  155.1990 N   0  0  0  0  0  0  0  0  0  0  0  0
  137.4400  138.1260  155.6710 C   0  0  0  0  0  0  0  0  0  0  0  0
  136.9140  139.2240  155.4970 O   0  0  0  0  0  0  0  0  0  0  0  0
  139.0740  136.9310  155.4060 H   0  0  0  0  0  0  0  0  0  0  0  0
  139.4820  138.7350  154.4160 C   0  0  0  0  0  2  0  0  0  0  0  0
  139.1710  137.2490  150.9050 C   0  0  0  0  0  0  0  0  0  0  0  0
  140.5120  137.0410  150.5790 C   0  0  0  0  0  3  0  0  0  0  0  0
  141.5140  137.3720  151.4930 C   0  0  0  0  0  3  0  0  0  0  0  0
  141.1820  137.9140  152.7350 C   0  0  0  0  0  3  0  0  0  0  0  0
  139.8420  138.1210  153.0880 C   0  0  0  0  0  0  0  0  0  0  0  0
  138.8450  137.7890  152.1570 C   0  0  0  0  0  3  0  0  0  0  0  0
  138.3580  136.1800  148.9480 C   0  0  0  0  0  1  0  0  0  0  0  0
  138.1000  136.9740  150.1020 O   0  0  0  0  0  0  0  0  0  0  0  0
  136.7580  137.0210  156.4630 C   0  0  0  0  0  2  0  0  0  0  0  0
  136.5700  135.7420  155.6500 C   0  0  0  0  0  2  0  0  0  0  0  0
  135.1090  135.3620  155.4550 C   0  0  0  0  0  2  0  0  0  0  0  0
  134.7030  135.6240  154.0030 C   0  0  0  0  0  2  0  0  0  0  0  0
  135.9160  135.5940  153.0840 C   0  0  0  0  0  2  0  0  0  0  0  0
  135.8990  134.3610  152.1810 C   0  0  0  0  0  2  0  0  0  0  0  0
  134.8490  134.4880  151.1070 C   0  0  0  0  0  0  0  0  0  0  0  0
  133.8760  133.4930  150.9410 C   0  0  0  0  0  3  0  0  0  0  0  0
  132.9220  133.6010  149.9280 C   0  0  0  0  0  3  0  0  0  0  0  0
  132.9340  134.7010  149.0710 C   0  0  0  0  0  3  0  0  0  0  0  0
  133.9000  135.6930  149.2260 C   0  0  0  0  0  3  0  0  0  0  0  0
  134.8570  135.5860  150.2370 C   0  0  0  0  0  3  0  0  0  0  0  0
  1  4  1  0  0  0  0
  1  2  1  0  0  0  0
  2 14  1  0  0  0  0
  3  2  2  0  0  0  0
  5  1  1  0  0  0  0
  6 11  1  0  0  0  0
  7  6  2  0  0  0  0
  7  8  1  0  0  0  0
  8  9  2  0  0  0  0
  9 10  1  0  0  0  0
 10  5  1  0  0  0  0
 11 10  2  0  0  0  0
 12 13  1  0  0  0  0
 13  6  1  0  0  0  0
 15 14  1  0  0  0  0
 16 15  1  0  0  0  0
 17 16  1  0  0  0  0
 18 17  1  0  0  0  0
 19 18  1  0  0  0  0
 20 19  1  0  0  0  0
 21 20  1  0  0  0  0
 22 21  2  0  0  0  0
 23 24  2  0  0  0  0
 23 22  1  0  0  0  0
 24 25  1  0  0  0  0
 25 20  2  0  0  0  0
M  END
>  <MODEL>
3

>  <REMARK>
 VINA RESULT:    -7.207      5.661     10.549
 INTER + INTRA:         -12.923
 INTER:                 -11.324
 INTRA:                  -1.599
 UNBOUND:                -1.503
  Name = CHEMBL2413172
  11 active torsions:
  status: ('A' for Active; 'I' for Inactive)
    1  A    between atoms: C_1  and  O_2
    2  A    between atoms: O_2  and  C_3
    3  A    between atoms: C_7  and  C_8
    4  A    between atoms: C_8  and  N_9
    5  A    between atoms: C_10  and  C_12
    6  A    between atoms: C_12  and  C_13
    7  A    between atoms: C_13  and  C_14
    8  A    between atoms: C_14  and  C_15
    9  A    between atoms: C_15  and  C_16
   10  A    between atoms: C_16  and  C_17
   11  A    between atoms: C_17  and  C_18
                            x       y       z     vdW  Elec       q    Type
                         _______ _______ _______ _____ _____    ______ ____

>  <TORSDO>
F 10

>  <SCORE>
-7.207

>  <RMSD_LB>
5.661

>  <RMSD_UB>
10.549

$$$$
CHEMBL2413172
 OpenBabel10162523593D

 25 26  0  0  0  0  0  0  0  0999 V2000
  143.9400  138.2250  153.3120 N   0  0  0  0  0  0  0  0  0  0  0  0
  145.1590  138.6490  153.7960 C   0  0  0  0  0  0  0  0  0  0  0  0
  145.2890  139.1860  154.8940 O   0  0  0  0  0  0  0  0  0  0  0  0
  143.9000  137.8360  152.4080 H   0  0  0  0  0  0  0  0  0  0  0  0
  142.7220  138.3290  154.0720 C   0  0  0  0  0  2  0  0  0  0  0  0
  140.5810  137.7090  150.9640 C   0  0  0  0  0  0  0  0  0  0  0  0
  139.2980  137.7020  151.5150 C   0  0  0  0  0  3  0  0  0  0  0  0
  139.1240  137.9040  152.8850 C   0  0  0  0  0  3  0  0  0  0  0  0
  140.2290  138.1130  153.7120 C   0  0  0  0  0  3  0  0  0  0  0  0
  141.5250  138.1350  153.1780 C   0  0  0  0  0  0  0  0  0  0  0  0
  141.6850  137.9250  151.7990 C   0  0  0  0  0  3  0  0  0  0  0  0
  141.2270  136.1920  149.2570 C   0  0  0  0  0  1  0  0  0  0  0  0
  140.8860  137.5190  149.6450 O   0  0  0  0  0  0  0  0  0  0  0  0
  146.3350  138.4390  152.8550 C   0  0  0  0  0  2  0  0  0  0  0  0
  145.9020  138.0450  151.4450 C   0  0  0  0  0  2  0  0  0  0  0  0
  146.3010  139.0620  150.3860 C   0  0  0  0  0  2  0  0  0  0  0  0
  145.1490  140.0460  150.1640 C   0  0  0  0  0  2  0  0  0  0  0  0
  145.6750  141.4490  149.8990 C   0  0  0  0  0  2  0  0  0  0  0  0
  145.5460  142.3360  151.1380 C   0  0  0  0  0  2  0  0  0  0  0  0
  146.7410  142.1830  152.0430 C   0  0  0  0  0  0  0  0  0  0  0  0
  148.0330  142.0980  151.5080 C   0  0  0  0  0  3  0  0  0  0  0  0
  149.1350  141.9280  152.3470 C   0  0  0  0  0  3  0  0  0  0  0  0
  148.9560  141.8380  153.7270 C   0  0  0  0  0  3  0  0  0  0  0  0
  147.6740  141.9160  154.2680 C   0  0  0  0  0  3  0  0  0  0  0  0
  146.5700  142.0830  153.4300 C   0  0  0  0  0  3  0  0  0  0  0  0
  1  2  1  0  0  0  0
  1  5  1  0  0  0  0
  2  3  2  0  0  0  0
  4  1  1  0  0  0  0
  6  7  2  0  0  0  0
  6 11  1  0  0  0  0
  7  8  1  0  0  0  0
  8  9  2  0  0  0  0
 10  9  1  0  0  0  0
 10  5  1  0  0  0  0
 11 10  2  0  0  0  0
 12 13  1  0  0  0  0
 13  6  1  0  0  0  0
 14  2  1  0  0  0  0
 15 14  1  0  0  0  0
 16 15  1  0  0  0  0
 17 16  1  0  0  0  0
 18 17  1  0  0  0  0
 18 19  1  0  0  0  0
 19 20  1  0  0  0  0
 20 25  1  0  0  0  0
 21 20  2  0  0  0  0
 21 22  1  0  0  0  0
 22 23  2  0  0  0  0
 23 24  1  0  0  0  0
 25 24  2  0  0  0  0
M  END
>  <MODEL>
4

>  <REMARK>
 VINA RESULT:    -7.126      1.702      3.381
 INTER + INTRA:         -12.795
 INTER:                 -10.851
 INTRA:                  -1.944
 UNBOUND:                -1.503
  Name = CHEMBL2413172
  11 active torsions:
  status: ('A' for Active; 'I' for Inactive)
    1  A    between atoms: C_1  and  O_2
    2  A    between atoms: O_2  and  C_3
    3  A    between atoms: C_7  and  C_8
    4  A    between atoms: C_8  and  N_9
    5  A    between atoms: C_10  and  C_12
    6  A    between atoms: C_12  and  C_13
    7  A    between atoms: C_13  and  C_14
    8  A    between atoms: C_14  and  C_15
    9  A    between atoms: C_15  and  C_16
   10  A    between atoms: C_16  and  C_17
   11  A    between atoms: C_17  and  C_18
                            x       y       z     vdW  Elec       q    Type
                         _______ _______ _______ _____ _____    ______ ____

>  <TORSDO>
F 10

>  <SCORE>
-7.126

>  <RMSD_LB>
1.702

>  <RMSD_UB>
3.381

$$$$
CHEMBL2413172
 OpenBabel10162523593D

 25 26  0  0  0  0  0  0  0  0999 V2000
  138.0720  137.9840  153.4830 N   0  0  0  0  0  0  0  0  0  0  0  0
  138.3450  138.5790  154.6950 C   0  0  0  0  0  0  0  0  0  0  0  0
  139.3150  139.3120  154.8740 O   0  0  0  0  0  0  0  0  0  0  0  0
  137.2990  137.3770  153.4170 H   0  0  0  0  0  0  0  0  0  0  0  0
  138.8720  138.2110  152.3070 C   0  0  0  0  0  2  0  0  0  0  0  0
  138.9890  136.0000  149.1880 C   0  0  0  0  0  0  0  0  0  0  0  0
  137.6860  135.5010  149.1600 C   0  0  0  0  0  3  0  0  0  0  0  0
  136.7690  135.8830  150.1410 C   0  0  0  0  0  3  0  0  0  0  0  0
  137.1490  136.7640  151.1550 C   0  0  0  0  0  3  0  0  0  0  0  0
  138.4500  137.2860  151.1960 C   0  0  0  0  0  0  0  0  0  0  0  0
  139.3620  136.8880  150.2060 C   0  0  0  0  0  3  0  0  0  0  0  0
  141.2920  136.1460  148.6280 C   0  0  0  0  0  1  0  0  0  0  0  0
  139.9800  135.7020  148.2940 O   0  0  0  0  0  0  0  0  0  0  0  0
  137.3770  138.2320  155.8160 C   0  0  0  0  0  2  0  0  0  0  0  0
  137.7700  136.9600  156.5640 C   0  0  0  0  0  2  0  0  0  0  0  0
  137.1430  135.7020  155.9820 C   0  0  0  0  0  2  0  0  0  0  0  0
  135.7300  136.0180  155.4880 C   0  0  0  0  0  2  0  0  0  0  0  0
  135.4990  135.4480  154.0950 C   0  0  0  0  0  2  0  0  0  0  0  0
  134.0660  135.6940  153.6230 C   0  0  0  0  0  2  0  0  0  0  0  0
  133.8410  135.1210  152.2470 C   0  0  0  0  0  0  0  0  0  0  0  0
  133.2490  135.8950  151.2410 C   0  0  0  0  0  3  0  0  0  0  0  0
  133.0170  135.3520  149.9760 C   0  0  0  0  0  3  0  0  0  0  0  0
  133.3700  134.0310  149.7080 C   0  0  0  0  0  3  0  0  0  0  0  0
  133.9550  133.2500  150.7040 C   0  0  0  0  0  3  0  0  0  0  0  0
  134.1860  133.7910  151.9700 C   0  0  0  0  0  3  0  0  0  0  0  0
  1  2  1  0  0  0  0
  2  3  2  0  0  0  0
  2 14  1  0  0  0  0
  4  1  1  0  0  0  0
  5  1  1  0  0  0  0
  6 11  1  0  0  0  0
  7  6  2  0  0  0  0
  7  8  1  0  0  0  0
  8  9  2  0  0  0  0
  9 10  1  0  0  0  0
 10  5  1  0  0  0  0
 11 10  2  0  0  0  0
 13 12  1  0  0  0  0
 13  6  1  0  0  0  0
 14 15  1  0  0  0  0
 16 15  1  0  0  0  0
 17 16  1  0  0  0  0
 18 17  1  0  0  0  0
 19 18  1  0  0  0  0
 20 19  1  0  0  0  0
 21 20  2  0  0  0  0
 22 21  1  0  0  0  0
 23 22  2  0  0  0  0
 23 24  1  0  0  0  0
 24 25  2  0  0  0  0
 25 20  1  0  0  0  0
M  END
>  <MODEL>
5

>  <REMARK>
 VINA RESULT:    -6.853      6.880     10.540
 INTER + INTRA:         -12.361
 INTER:                 -10.292
 INTRA:                  -2.070
 UNBOUND:                -1.503
  Name = CHEMBL2413172
  11 active torsions:
  status: ('A' for Active; 'I' for Inactive)
    1  A    between atoms: C_1  and  O_2
    2  A    between atoms: O_2  and  C_3
    3  A    between atoms: C_7  and  C_8
    4  A    between atoms: C_8  and  N_9
    5  A    between atoms: C_10  and  C_12
    6  A    between atoms: C_12  and  C_13
    7  A    between atoms: C_13  and  C_14
    8  A    between atoms: C_14  and  C_15
    9  A    between atoms: C_15  and  C_16
   10  A    between atoms: C_16  and  C_17
   11  A    between atoms: C_17  and  C_18
                            x       y       z     vdW  Elec       q    Type
                         _______ _______ _______ _____ _____    ______ ____

>  <TORSDO>
F 10

>  <SCORE>
-6.853

>  <RMSD_LB>
6.880

>  <RMSD_UB>
10.540

$$$$
CHEMBL2413172
 OpenBabel10162523593D

 25 26  0  0  0  0  0  0  0  0999 V2000
  144.2950  138.0860  150.9160 N   0  0  0  0  0  0  0  0  0  0  0  0
  144.5290  139.4360  151.0660 C   0  0  0  0  0  0  0  0  0  0  0  0
  144.0820  140.0900  152.0060 O   0  0  0  0  0  0  0  0  0  0  0  0
  144.6510  137.6300  150.1200 H   0  0  0  0  0  0  0  0  0  0  0  0
  143.5490  137.3150  151.8770 C   0  0  0  0  0  2  0  0  0  0  0  0
  140.2260  136.9970  150.0100 C   0  0  0  0  0  0  0  0  0  0  0  0
  139.3210  137.3930  150.9960 C   0  0  0  0  0  3  0  0  0  0  0  0
  139.7830  137.7680  152.2590 C   0  0  0  0  0  3  0  0  0  0  0  0
  141.1500  137.7490  152.5430 C   0  0  0  0  0  3  0  0  0  0  0  0
  142.0760  137.3670  151.5640 C   0  0  0  0  0  0  0  0  0  0  0  0
  141.5970  136.9860  150.3000 C   0  0  0  0  0  3  0  0  0  0  0  0
  138.9780  135.5270  148.6250 C   0  0  0  0  0  1  0  0  0  0  0  0
  139.9040  136.6030  148.7410 O   0  0  0  0  0  0  0  0  0  0  0  0
  145.3530  140.0740  149.9580 C   0  0  0  0  0  2  0  0  0  0  0  0
  146.7020  140.5940  150.4490 C   0  0  0  0  0  2  0  0  0  0  0  0
  146.7090  142.0920  150.7170 C   0  0  0  0  0  2  0  0  0  0  0  0
  146.7050  142.3400  152.2280 C   0  0  0  0  0  2  0  0  0  0  0  0
  148.0540  141.9890  152.8410 C   0  0  0  0  0  2  0  0  0  0  0  0
  147.8880  141.3230  154.2070 C   0  0  0  0  0  2  0  0  0  0  0  0
  147.5510  139.8620  154.0620 C   0  0  0  0  0  0  0  0  0  0  0  0
  148.3830  139.0080  153.3240 C   0  0  0  0  0  3  0  0  0  0  0  0
  148.0530  137.6620  153.1680 C   0  0  0  0  0  3  0  0  0  0  0  0
  146.8880  137.1560  153.7440 C   0  0  0  0  0  3  0  0  0  0  0  0
  146.0520  137.9980  154.4760 C   0  0  0  0  0  3  0  0  0  0  0  0
  146.3790  139.3460  154.6300 C   0  0  0  0  0  3  0  0  0  0  0  0
  1  2  1  0  0  0  0
  1  5  1  0  0  0  0
  2  3  2  0  0  0  0
  4  1  1  0  0  0  0
  6 11  2  0  0  0  0
  6  7  1  0  0  0  0
  7  8  2  0  0  0  0
  8  9  1  0  0  0  0
 10  5  1  0  0  0  0
 10  9  2  0  0  0  0
 11 10  1  0  0  0  0
 12 13  1  0  0  0  0
 13  6  1  0  0  0  0
 14 15  1  0  0  0  0
 14  2  1  0  0  0  0
 15 16  1  0  0  0  0
 16 17  1  0  0  0  0
 17 18  1  0  0  0  0
 18 19  1  0  0  0  0
 20 19  1  0  0  0  0
 20 25  1  0  0  0  0
 21 20  2  0  0  0  0
 22 21  1  0  0  0  0
 22 23  2  0  0  0  0
 23 24  1  0  0  0  0
 24 25  2  0  0  0  0
M  END
>  <MODEL>
6

>  <REMARK>
 VINA RESULT:    -6.524      1.812      3.967
 INTER + INTRA:         -11.840
 INTER:                 -10.029
 INTRA:                  -1.812
 UNBOUND:                -1.503
  Name = CHEMBL2413172
  11 active torsions:
  status: ('A' for Active; 'I' for Inactive)
    1  A    between atoms: C_1  and  O_2
    2  A    between atoms: O_2  and  C_3
    3  A    between atoms: C_7  and  C_8
    4  A    between atoms: C_8  and  N_9
    5  A    between atoms: C_10  and  C_12
    6  A    between atoms: C_12  and  C_13
    7  A    between atoms: C_13  and  C_14
    8  A    between atoms: C_14  and  C_15
    9  A    between atoms: C_15  and  C_16
   10  A    between atoms: C_16  and  C_17
   11  A    between atoms: C_17  and  C_18
                            x       y       z     vdW  Elec       q    Type
                         _______ _______ _______ _____ _____    ______ ____

>  <TORSDO>
F 10

>  <SCORE>
-6.524

>  <RMSD_LB>
1.812

>  <RMSD_UB>
3.967

$$$$
CHEMBL2413172
 OpenBabel10162523593D

 25 26  0  0  0  0  0  0  0  0999 V2000
  139.7140  138.3070  154.0010 N   0  0  0  0  0  0  0  0  0  0  0  0
  140.9750  138.1600  153.4650 C   0  0  0  0  0  0  0  0  0  0  0  0
  141.9640  137.9060  154.1490 O   0  0  0  0  0  0  0  0  0  0  0  0
  138.9710  138.5470  153.4020 H   0  0  0  0  0  0  0  0  0  0  0  0
  139.4390  138.1250  155.4030 C   0  0  0  0  0  2  0  0  0  0  0  0
  136.8030  135.8890  157.0400 C   0  0  0  0  0  0  0  0  0  0  0  0
  135.9370  135.6600  155.9690 C   0  0  0  0  0  3  0  0  0  0  0  0
  136.2080  136.2210  154.7190 C   0  0  0  0  0  3  0  0  0  0  0  0
  137.3420  137.0130  154.5330 C   0  0  0  0  0  3  0  0  0  0  0  0
  138.2300  137.2450  155.5920 C   0  0  0  0  0  0  0  0  0  0  0  0
  137.9430  136.6800  156.8440 C   0  0  0  0  0  3  0  0  0  0  0  0
  135.3230  135.0770  158.7090 C   0  0  0  0  0  1  0  0  0  0  0  0
  136.6500  135.4050  158.3090 O   0  0  0  0  0  0  0  0  0  0  0  0
  141.0660  138.3730  151.9620 C   0  0  0  0  0  2  0  0  0  0  0  0
  140.6380  137.1440  151.1630 C   0  0  0  0  0  2  0  0  0  0  0  0
  139.6620  137.4650  150.0410 C   0  0  0  0  0  2  0  0  0  0  0  0
  138.3040  137.8410  150.6370 C   0  0  0  0  0  2  0  0  0  0  0  0
  137.5030  136.5970  150.9970 C   0  0  0  0  0  2  0  0  0  0  0  0
  136.8840  135.9550  149.7550 C   0  0  0  0  0  2  0  0  0  0  0  0
  135.8050  134.9730  150.1320 C   0  0  0  0  0  0  0  0  0  0  0  0
  135.1590  134.2120  149.1490 C   0  0  0  0  0  3  0  0  0  0  0  0
  134.1410  133.3240  149.4990 C   0  0  0  0  0  3  0  0  0  0  0  0
  133.7580  133.1900  150.8330 C   0  0  0  0  0  3  0  0  0  0  0  0
  134.3920  133.9460  151.8180 C   0  0  0  0  0  3  0  0  0  0  0  0
  135.4080  134.8370  151.4690 C   0  0  0  0  0  3  0  0  0  0  0  0
  1  5  1  0  0  0  0
  2  1  1  0  0  0  0
  2  3  2  0  0  0  0
  4  1  1  0  0  0  0
  5 10  1  0  0  0  0
  6 13  1  0  0  0  0
  7  6  2  0  0  0  0
  8  7  1  0  0  0  0
  9  8  2  0  0  0  0
  9 10  1  0  0  0  0
 10 11  2  0  0  0  0
 11  6  1  0  0  0  0
 13 12  1  0  0  0  0
 14  2  1  0  0  0  0
 15 14  1  0  0  0  0
 16 17  1  0  0  0  0
 16 15  1  0  0  0  0
 17 18  1  0  0  0  0
 19 20  1  0  0  0  0
 19 18  1  0  0  0  0
 20 25  1  0  0  0  0
 21 22  1  0  0  0  0
 21 20  2  0  0  0  0
 22 23  2  0  0  0  0
 23 24  1  0  0  0  0
 25 24  2  0  0  0  0
M  END
>  <MODEL>
7

>  <REMARK>
 VINA RESULT:    -6.346      5.369      9.905
 INTER + INTRA:         -11.559
 INTER:                 -10.022
 INTRA:                  -1.537
 UNBOUND:                -1.503
  Name = CHEMBL2413172
  11 active torsions:
  status: ('A' for Active; 'I' for Inactive)
    1  A    between atoms: C_1  and  O_2
    2  A    between atoms: O_2  and  C_3
    3  A    between atoms: C_7  and  C_8
    4  A    between atoms: C_8  and  N_9
    5  A    between atoms: C_10  and  C_12
    6  A    between atoms: C_12  and  C_13
    7  A    between atoms: C_13  and  C_14
    8  A    between atoms: C_14  and  C_15
    9  A    between atoms: C_15  and  C_16
   10  A    between atoms: C_16  and  C_17
   11  A    between atoms: C_17  and  C_18
                            x       y       z     vdW  Elec       q    Type
                         _______ _______ _______ _____ _____    ______ ____

>  <TORSDO>
F 10

>  <SCORE>
-6.346

>  <RMSD_LB>
5.369

>  <RMSD_UB>
9.905

$$$$
CHEMBL2413172
 OpenBabel10162523593D

 25 26  0  0  0  0  0  0  0  0999 V2000
  137.3860  136.0270  147.0060 N   0  0  0  0  0  0  0  0  0  0  0  0
  138.1260  136.3580  148.1200 C   0  0  0  0  0  0  0  0  0  0  0  0
  139.3510  136.2570  148.1610 O   0  0  0  0  0  0  0  0  0  0  0  0
  136.4050  136.0960  147.0520 H   0  0  0  0  0  0  0  0  0  0  0  0
  137.9890  135.5830  145.7750 C   0  0  0  0  0  2  0  0  0  0  0  0
  137.0570  132.4800  143.7430 C   0  0  0  0  0  0  0  0  0  0  0  0
  136.6600  131.6030  144.7530 C   0  0  0  0  0  3  0  0  0  0  0  0
  136.6860  132.0140  146.0870 C   0  0  0  0  0  3  0  0  0  0  0  0
  137.1100  133.3020  146.4180 C   0  0  0  0  0  3  0  0  0  0  0  0
  137.5010  134.2030  145.4190 C   0  0  0  0  0  0  0  0  0  0  0  0
  137.4760  133.7740  144.0820 C   0  0  0  0  0  3  0  0  0  0  0  0
  137.0100  133.3150  141.5210 C   0  0  0  0  0  1  0  0  0  0  0  0
  137.0840  132.2000  142.4040 O   0  0  0  0  0  0  0  0  0  0  0  0
  137.3140  136.8230  149.3190 C   0  0  0  0  0  2  0  0  0  0  0  0
  136.0020  136.0580  149.4770 C   0  0  0  0  0  2  0  0  0  0  0  0
  136.1870  134.6610  150.0520 C   0  0  0  0  0  2  0  0  0  0  0  0
  134.8360  134.1240  150.5300 C   0  0  0  0  0  2  0  0  0  0  0  0
  134.2540  133.1410  149.5240 C   0  0  0  0  0  2  0  0  0  0  0  0
  132.9050  133.6230  148.9900 C   0  0  0  0  0  2  0  0  0  0  0  0
  133.0840  134.7130  147.9650 C   0  0  0  0  0  0  0  0  0  0  0  0
  133.8010  134.4720  146.7860 C   0  0  0  0  0  3  0  0  0  0  0  0
  133.9900  135.4910  145.8520 C   0  0  0  0  0  3  0  0  0  0  0  0
  133.4660  136.7610  146.0900 C   0  0  0  0  0  3  0  0  0  0  0  0
  132.7550  137.0130  147.2620 C   0  0  0  0  0  3  0  0  0  0  0  0
  132.5680  135.9950  148.1990 C   0  0  0  0  0  3  0  0  0  0  0  0
  1  4  1  0  0  0  0
  1  2  1  0  0  0  0
  2  3  2  0  0  0  0
  2 14  1  0  0  0  0
  5  1  1  0  0  0  0
  6 11  2  0  0  0  0
  6  7  1  0  0  0  0
  7  8  2  0  0  0  0
  8  9  1  0  0  0  0
 10  5  1  0  0  0  0
 10  9  2  0  0  0  0
 11 10  1  0  0  0  0
 12 13  1  0  0  0  0
 13  6  1  0  0  0  0
 14 15  1  0  0  0  0
 15 16  1  0  0  0  0
 16 17  1  0  0  0  0
 18 17  1  0  0  0  0
 19 18  1  0  0  0  0
 20 25  1  0  0  0  0
 20 19  1  0  0  0  0
 21 20  2  0  0  0  0
 22 23  2  0  0  0  0
 22 21  1  0  0  0  0
 23 24  1  0  0  0  0
 24 25  2  0  0  0  0
M  END
>  <MODEL>
8

>  <REMARK>
 VINA RESULT:    -6.313      9.278     12.819
 INTER + INTRA:         -11.506
 INTER:                  -8.937
 INTRA:                  -2.569
 UNBOUND:                -1.503
  Name = CHEMBL2413172
  11 active torsions:
  status: ('A' for Active; 'I' for Inactive)
    1  A    between atoms: C_1  and  O_2
    2  A    between atoms: O_2  and  C_3
    3  A    between atoms: C_7  and  C_8
    4  A    between atoms: C_8  and  N_9
    5  A    between atoms: C_10  and  C_12
    6  A    between atoms: C_12  and  C_13
    7  A    between atoms: C_13  and  C_14
    8  A    between atoms: C_14  and  C_15
    9  A    between atoms: C_15  and  C_16
   10  A    between atoms: C_16  and  C_17
   11  A    between atoms: C_17  and  C_18
                            x       y       z     vdW  Elec       q    Type
                         _______ _______ _______ _____ _____    ______ ____

>  <TORSDO>
F 10

>  <SCORE>
-6.313

>  <RMSD_LB>
9.278

>  <RMSD_UB>
12.819

$$$$
CHEMBL2413172
 OpenBabel10162523593D

 25 26  0  0  0  0  0  0  0  0999 V2000
  135.0780  132.9010  147.4260 N   0  0  0  0  0  0  0  0  0  0  0  0
  135.8220  132.0400  146.6500 C   0  0  0  0  0  0  0  0  0  0  0  0
  135.8300  130.8230  146.8240 O   0  0  0  0  0  0  0  0  0  0  0  0
  135.1460  133.8680  147.2570 H   0  0  0  0  0  0  0  0  0  0  0  0
  134.2060  132.4440  148.4770 C   0  0  0  0  0  2  0  0  0  0  0  0
  133.7150  134.5350  151.6410 C   0  0  0  0  0  0  0  0  0  0  0  0
  133.2380  135.7320  151.1050 C   0  0  0  0  0  3  0  0  0  0  0  0
  133.0690  135.8620  149.7250 C   0  0  0  0  0  3  0  0  0  0  0  0
  133.3750  134.7980  148.8750 C   0  0  0  0  0  3  0  0  0  0  0  0
  133.8440  133.5830  149.3940 C   0  0  0  0  0  0  0  0  0  0  0  0
  134.0150  133.4690  150.7820 C   0  0  0  0  0  3  0  0  0  0  0  0
  133.8920  135.4060  153.8430 C   0  0  0  0  0  1  0  0  0  0  0  0
  133.9300  134.2830  152.9680 O   0  0  0  0  0  0  0  0  0  0  0  0
  136.6700  132.7070  145.5770 C   0  0  0  0  0  2  0  0  0  0  0  0
  136.1210  132.4900  144.1690 C   0  0  0  0  0  2  0  0  0  0  0  0
  137.2020  132.4710  143.0980 C   0  0  0  0  0  2  0  0  0  0  0  0
  137.6360  133.9050  142.7860 C   0  0  0  0  0  2  0  0  0  0  0  0
  136.4420  134.7620  142.3890 C   0  0  0  0  0  2  0  0  0  0  0  0
  136.5310  136.1590  143.0020 C   0  0  0  0  0  2  0  0  0  0  0  0
  135.2570  136.5200  143.7220 C   0  0  0  0  0  0  0  0  0  0  0  0
  134.4620  137.5830  143.2730 C   0  0  0  0  0  3  0  0  0  0  0  0
  133.2980  137.9320  143.9590 C   0  0  0  0  0  3  0  0  0  0  0  0
  132.9200  137.2250  145.0990 C   0  0  0  0  0  3  0  0  0  0  0  0
  133.7070  136.1690  145.5560 C   0  0  0  0  0  3  0  0  0  0  0  0
  134.8730  135.8200  144.8740 C   0  0  0  0  0  3  0  0  0  0  0  0
  1  5  1  0  0  0  0
  2  3  2  0  0  0  0
  2  1  1  0  0  0  0
  4  1  1  0  0  0  0
  5 10  1  0  0  0  0
  6 13  1  0  0  0  0
  7  6  1  0  0  0  0
  8  7  2  0  0  0  0
  9 10  2  0  0  0  0
  9  8  1  0  0  0  0
 10 11  1  0  0  0  0
 11  6  2  0  0  0  0
 13 12  1  0  0  0  0
 14  2  1  0  0  0  0
 15 14  1  0  0  0  0
 16 15  1  0  0  0  0
 17 16  1  0  0  0  0
 18 17  1  0  0  0  0
 18 19  1  0  0  0  0
 19 20  1  0  0  0  0
 20 25  1  0  0  0  0
 21 20  2  0  0  0  0
 21 22  1  0  0  0  0
 22 23  2  0  0  0  0
 23 24  1  0  0  0  0
 25 24  2  0  0  0  0
M  END
>  <MODEL>
9

>  <REMARK>
 VINA RESULT:    -6.288     12.082     13.261
 INTER + INTRA:         -11.466
 INTER:                  -9.964
 INTRA:                  -1.503
 UNBOUND:                -1.503
  Name = CHEMBL2413172
  11 active torsions:
  status: ('A' for Active; 'I' for Inactive)
    1  A    between atoms: C_1  and  O_2
    2  A    between atoms: O_2  and  C_3
    3  A    between atoms: C_7  and  C_8
    4  A    between atoms: C_8  and  N_9
    5  A    between atoms: C_10  and  C_12
    6  A    between atoms: C_12  and  C_13
    7  A    between atoms: C_13  and  C_14
    8  A    between atoms: C_14  and  C_15
    9  A    between atoms: C_15  and  C_16
   10  A    between atoms: C_16  and  C_17
   11  A    between atoms: C_17  and  C_18
                            x       y       z     vdW  Elec       q    Type
                         _______ _______ _______ _____ _____    ______ ____

>  <TORSDO>
F 10

>  <SCORE>
-6.288

>  <RMSD_LB>
12.082

>  <RMSD_UB>
13.261

$$$$
