CHEMBL78895
 OpenBabel10162523333D

 29 31  0  0  0  0  0  0  0  0999 V2000
  142.7690  139.6050  151.9680 N   0  0  0  0  0  0  0  0  0  0  0  0
  142.3070  138.3610  151.6290 C   0  0  0  0  0  0  0  0  0  0  0  0
  142.7400  137.6840  150.7040 O   0  0  0  0  0  0  0  0  0  0  0  0
  142.3420  140.0870  152.7140 H   0  0  0  0  0  0  0  0  0  0  0  0
  141.1980  137.9020  152.5010 C   0  0  0  0  0  3  0  0  0  0  0  0
  140.9860  138.4960  153.6830 C   0  0  0  0  0  3  0  0  0  0  0  0
  139.9300  138.0970  154.6230 C   0  0  0  0  0  0  0  0  0  0  0  0
  138.6140  137.8600  154.2160 C   0  0  0  0  0  3  0  0  0  0  0  0
  137.6400  137.4570  155.1360 C   0  0  0  0  0  3  0  0  0  0  0  0
  137.9510  137.2490  156.4900 C   0  0  0  0  0  0  0  0  0  0  0  0
  139.2880  137.4590  156.8740 C   0  0  0  0  0  3  0  0  0  0  0  0
  140.2620  137.8820  155.9610 C   0  0  0  0  0  3  0  0  0  0  0  0
  136.9290  136.8190  157.4720 C   0  0  0  0  0  0  0  0  0  0  0  0
  136.2030  135.6240  157.3160 C   0  0  0  0  0  3  0  0  0  0  0  0
  135.2560  135.2160  158.2620 C   0  0  0  0  0  3  0  0  0  0  0  0
  135.0210  135.9930  159.3920 C   0  0  0  0  0  3  0  0  0  0  0  0
  135.7170  137.1810  159.5690 C   0  0  0  0  0  3  0  0  0  0  0  0
  136.6500  137.5920  158.6150 C   0  0  0  0  0  3  0  0  0  0  0  0
  143.8640  140.2320  151.2620 C   0  0  0  0  0  2  0  0  0  0  0  0
  146.4300  140.2290  154.1090 C   0  0  0  0  0  0  0  0  0  0  0  0
  145.4110  139.8280  153.2350 C   0  0  0  0  0  3  0  0  0  0  0  0
  144.9950  140.6510  152.1700 C   0  0  0  0  0  0  0  0  0  0  0  0
  145.6100  141.8990  152.0040 C   0  0  0  0  0  3  0  0  0  0  0  0
  146.6220  142.3140  152.8720 C   0  0  0  0  0  3  0  0  0  0  0  0
  147.0270  141.4810  153.9130 C   0  0  0  0  0  0  0  0  0  0  0  0
  146.9480  138.0790  154.9930 C   0  0  0  0  0  1  0  0  0  0  0  0
  146.8960  139.4890  155.1640 O   0  0  0  0  0  0  0  0  0  0  0  0
  148.0190  141.8940  154.7650 O   0  0  0  0  0  0  0  0  0  0  0  0
  148.2170  142.8060  154.8480 H   0  0  0  0  0  0  0  0  0  0  0  0
  1  4  1  0  0  0  0
  2  1  1  0  0  0  0
  2  5  1  0  0  0  0
  3  2  2  0  0  0  0
  5  6  2  0  0  0  0
  6  7  1  0  0  0  0
  7 12  1  0  0  0  0
  8  7  2  0  0  0  0
  8  9  1  0  0  0  0
  9 10  2  0  0  0  0
 10 11  1  0  0  0  0
 10 13  1  0  0  0  0
 12 11  2  0  0  0  0
 13 18  1  0  0  0  0
 14 13  2  0  0  0  0
 14 15  1  0  0  0  0
 15 16  2  0  0  0  0
 16 17  1  0  0  0  0
 18 17  2  0  0  0  0
 19  1  1  0  0  0  0
 19 22  1  0  0  0  0
 20 27  1  0  0  0  0
 21 20  2  0  0  0  0
 22 21  1  0  0  0  0
 23 22  2  0  0  0  0
 23 24  1  0  0  0  0
 24 25  2  0  0  0  0
 25 20  1  0  0  0  0
 25 28  1  0  0  0  0
 26 27  1  0  0  0  0
 28 29  1  0  0  0  0
M  END
>  <MODEL>
1

>  <REMARK>
 VINA RESULT:    -8.987      0.000      0.000
 INTER + INTRA:         -13.121
 INTER:                 -12.192
 INTRA:                  -0.929
 UNBOUND:                -0.719
  Name = CHEMBL78895
  8 active torsions:
  status: ('A' for Active; 'I' for Inactive)
    1  A    between atoms: C_1  and  O_2
    2  A    between atoms: O_2  and  C_3
    3  A    between atoms: C_5  and  C_6
    4  A    between atoms: C_6  and  N_7
    5  A    between atoms: C_8  and  C_10
    6  A    between atoms: C_11  and  C_12
    7  A    between atoms: C_15  and  C_16
    8  A    between atoms: C_26  and  O_27
                            x       y       z     vdW  Elec       q    Type
                         _______ _______ _______ _____ _____    ______ ____

>  <TORSDO>
F 7

>  <SCORE>
-8.987

>  <RMSD_LB>
0.000

>  <RMSD_UB>
0.000

$$$$
CHEMBL78895
 OpenBabel10162523333D

 29 31  0  0  0  0  0  0  0  0999 V2000
  134.0000  133.6630  148.6790 N   0  0  0  0  0  0  0  0  0  0  0  0
  134.3520  132.5480  147.9660 C   0  0  0  0  0  0  0  0  0  0  0  0
  134.3570  131.4080  148.4130 O   0  0  0  0  0  0  0  0  0  0  0  0
  134.0500  134.5450  148.2430 H   0  0  0  0  0  0  0  0  0  0  0  0
  134.7470  132.8590  146.5700 C   0  0  0  0  0  3  0  0  0  0  0  0
  135.8620  132.3250  146.0540 C   0  0  0  0  0  3  0  0  0  0  0  0
  136.3450  132.5910  144.6930 C   0  0  0  0  0  0  0  0  0  0  0  0
  136.9330  131.6030  143.8990 C   0  0  0  0  0  3  0  0  0  0  0  0
  137.3590  131.8880  142.5970 C   0  0  0  0  0  3  0  0  0  0  0  0
  137.1880  133.1620  142.0320 C   0  0  0  0  0  0  0  0  0  0  0  0
  136.5630  134.1350  142.8340 C   0  0  0  0  0  3  0  0  0  0  0  0
  136.1530  133.8600  144.1440 C   0  0  0  0  0  3  0  0  0  0  0  0
  137.6310  133.4750  140.6530 C   0  0  0  0  0  0  0  0  0  0  0  0
  138.8190  132.9470  140.1150 C   0  0  0  0  0  3  0  0  0  0  0  0
  139.2170  133.2300  138.8050 C   0  0  0  0  0  3  0  0  0  0  0  0
  138.4280  134.0430  137.9980 C   0  0  0  0  0  3  0  0  0  0  0  0
  137.2540  134.5860  138.5040 C   0  0  0  0  0  3  0  0  0  0  0  0
  136.8690  134.3130  139.8180 C   0  0  0  0  0  3  0  0  0  0  0  0
  133.5590  133.5830  150.0530 C   0  0  0  0  0  2  0  0  0  0  0  0
  134.5690  135.7910  153.0190 C   0  0  0  0  0  0  0  0  0  0  0  0
  133.8210  134.9710  152.1640 C   0  0  0  0  0  3  0  0  0  0  0  0
  134.3860  134.4280  150.9940 C   0  0  0  0  0  0  0  0  0  0  0  0
  135.7160  134.7350  150.6830 C   0  0  0  0  0  3  0  0  0  0  0  0
  136.4710  135.5570  151.5230 C   0  0  0  0  0  3  0  0  0  0  0  0
  135.8980  136.0760  152.6820 C   0  0  0  0  0  0  0  0  0  0  0  0
  133.8610  135.4810  155.2730 C   0  0  0  0  0  1  0  0  0  0  0  0
  134.0980  136.3540  154.1770 O   0  0  0  0  0  0  0  0  0  0  0  0
  136.6410  136.8850  153.5030 O   0  0  0  0  0  0  0  0  0  0  0  0
  137.4620  136.5830  153.8410 H   0  0  0  0  0  0  0  0  0  0  0  0
  1 19  1  0  0  0  0
  2  3  2  0  0  0  0
  2  1  1  0  0  0  0
  4  1  1  0  0  0  0
  5  2  1  0  0  0  0
  6  5  2  0  0  0  0
  7  6  1  0  0  0  0
  8  7  2  0  0  0  0
  9  8  1  0  0  0  0
 10  9  2  0  0  0  0
 10 11  1  0  0  0  0
 11 12  2  0  0  0  0
 12  7  1  0  0  0  0
 13 10  1  0  0  0  0
 14 13  1  0  0  0  0
 15 14  2  0  0  0  0
 16 17  2  0  0  0  0
 16 15  1  0  0  0  0
 17 18  1  0  0  0  0
 18 13  2  0  0  0  0
 19 22  1  0  0  0  0
 20 27  1  0  0  0  0
 21 20  2  0  0  0  0
 22 21  1  0  0  0  0
 23 22  2  0  0  0  0
 23 24  1  0  0  0  0
 24 25  2  0  0  0  0
 25 20  1  0  0  0  0
 25 28  1  0  0  0  0
 27 26  1  0  0  0  0
 28 29  1  0  0  0  0
M  END
>  <MODEL>
2

>  <REMARK>
 VINA RESULT:    -8.610     10.186     14.336
 INTER + INTRA:         -12.601
 INTER:                 -11.778
 INTRA:                  -0.823
 UNBOUND:                -0.719
  Name = CHEMBL78895
  8 active torsions:
  status: ('A' for Active; 'I' for Inactive)
    1  A    between atoms: C_1  and  O_2
    2  A    between atoms: O_2  and  C_3
    3  A    between atoms: C_5  and  C_6
    4  A    between atoms: C_6  and  N_7
    5  A    between atoms: C_8  and  C_10
    6  A    between atoms: C_11  and  C_12
    7  A    between atoms: C_15  and  C_16
    8  A    between atoms: C_26  and  O_27
                            x       y       z     vdW  Elec       q    Type
                         _______ _______ _______ _____ _____    ______ ____

>  <TORSDO>
F 7

>  <SCORE>
-8.610

>  <RMSD_LB>
10.186

>  <RMSD_UB>
14.336

$$$$
CHEMBL78895
 OpenBabel10162523333D

 29 31  0  0  0  0  0  0  0  0999 V2000
  143.7790  140.4310  151.2070 N   0  0  0  0  0  0  0  0  0  0  0  0
  142.6480  140.0280  150.5470 C   0  0  0  0  0  0  0  0  0  0  0  0
  142.4190  140.2440  149.3630 O   0  0  0  0  0  0  0  0  0  0  0  0
  143.8670  140.2340  152.1690 H   0  0  0  0  0  0  0  0  0  0  0  0
  141.6990  139.2990  151.4230 C   0  0  0  0  0  3  0  0  0  0  0  0
  140.4320  139.1110  151.0280 C   0  0  0  0  0  3  0  0  0  0  0  0
  139.4160  138.4230  151.8350 C   0  0  0  0  0  0  0  0  0  0  0  0
  138.3650  137.7020  151.2610 C   0  0  0  0  0  3  0  0  0  0  0  0
  137.4290  137.0370  152.0610 C   0  0  0  0  0  3  0  0  0  0  0  0
  137.5260  137.0460  153.4630 C   0  0  0  0  0  0  0  0  0  0  0  0
  138.6090  137.7490  154.0210 C   0  0  0  0  0  3  0  0  0  0  0  0
  139.5370  138.4310  153.2250 C   0  0  0  0  0  3  0  0  0  0  0  0
  136.5430  136.3440  154.3210 C   0  0  0  0  0  0  0  0  0  0  0  0
  135.3890  135.7400  153.7900 C   0  0  0  0  0  3  0  0  0  0  0  0
  134.4800  135.0600  154.6070 C   0  0  0  0  0  3  0  0  0  0  0  0
  134.7100  134.9610  155.9750 C   0  0  0  0  0  3  0  0  0  0  0  0
  135.8360  135.5550  156.5280 C   0  0  0  0  0  3  0  0  0  0  0  0
  136.7340  136.2460  155.7120 C   0  0  0  0  0  3  0  0  0  0  0  0
  144.8460  141.1370  150.5350 C   0  0  0  0  0  2  0  0  0  0  0  0
  147.3790  140.6540  153.3710 C   0  0  0  0  0  0  0  0  0  0  0  0
  146.2020  140.5950  152.6130 C   0  0  0  0  0  3  0  0  0  0  0  0
  146.1320  141.1630  151.3260 C   0  0  0  0  0  0  0  0  0  0  0  0
  147.2640  141.8100  150.8140 C   0  0  0  0  0  3  0  0  0  0  0  0
  148.4410  141.8830  151.5620 C   0  0  0  0  0  3  0  0  0  0  0  0
  148.4940  141.3050  152.8290 C   0  0  0  0  0  0  0  0  0  0  0  0
  147.0470  138.8040  154.8360 C   0  0  0  0  0  1  0  0  0  0  0  0
  147.5320  140.1230  154.6250 O   0  0  0  0  0  0  0  0  0  0  0  0
  149.6510  141.3800  153.5610 O   0  0  0  0  0  0  0  0  0  0  0  0
  149.9550  140.6310  154.0350 H   0  0  0  0  0  0  0  0  0  0  0  0
  1  4  1  0  0  0  0
  2  1  1  0  0  0  0
  2  5  1  0  0  0  0
  3  2  2  0  0  0  0
  6  5  2  0  0  0  0
  6  7  1  0  0  0  0
  7 12  1  0  0  0  0
  8  7  2  0  0  0  0
  8  9  1  0  0  0  0
  9 10  2  0  0  0  0
 10 11  1  0  0  0  0
 10 13  1  0  0  0  0
 12 11  2  0  0  0  0
 13 18  1  0  0  0  0
 14 13  2  0  0  0  0
 14 15  1  0  0  0  0
 15 16  2  0  0  0  0
 16 17  1  0  0  0  0
 18 17  2  0  0  0  0
 19  1  1  0  0  0  0
 19 22  1  0  0  0  0
 20 27  1  0  0  0  0
 21 20  2  0  0  0  0
 22 21  1  0  0  0  0
 23 22  2  0  0  0  0
 23 24  1  0  0  0  0
 24 25  2  0  0  0  0
 25 20  1  0  0  0  0
 25 28  1  0  0  0  0
 27 26  1  0  0  0  0
 28 29  1  0  0  0  0
M  END
>  <MODEL>
3

>  <REMARK>
 VINA RESULT:    -8.572      1.913      2.567
 INTER + INTRA:         -12.549
 INTER:                 -11.770
 INTRA:                  -0.779
 UNBOUND:                -0.719
  Name = CHEMBL78895
  8 active torsions:
  status: ('A' for Active; 'I' for Inactive)
    1  A    between atoms: C_1  and  O_2
    2  A    between atoms: O_2  and  C_3
    3  A    between atoms: C_5  and  C_6
    4  A    between atoms: C_6  and  N_7
    5  A    between atoms: C_8  and  C_10
    6  A    between atoms: C_11  and  C_12
    7  A    between atoms: C_15  and  C_16
    8  A    between atoms: C_26  and  O_27
                            x       y       z     vdW  Elec       q    Type
                         _______ _______ _______ _____ _____    ______ ____

>  <TORSDO>
F 7

>  <SCORE>
-8.572

>  <RMSD_LB>
1.913

>  <RMSD_UB>
2.567

$$$$
CHEMBL78895
 OpenBabel10162523333D

 29 31  0  0  0  0  0  0  0  0999 V2000
  134.8720  134.1470  155.2960 N   0  0  0  0  0  0  0  0  0  0  0  0
  134.1720  134.6760  154.2430 C   0  0  0  0  0  0  0  0  0  0  0  0
  133.2060  135.4200  154.3530 O   0  0  0  0  0  0  0  0  0  0  0  0
  135.6230  133.5360  155.1120 H   0  0  0  0  0  0  0  0  0  0  0  0
  134.7000  134.2430  152.9260 C   0  0  0  0  0  3  0  0  0  0  0  0
  133.9180  134.2980  151.8400 C   0  0  0  0  0  3  0  0  0  0  0  0
  134.3440  133.8710  150.5010 C   0  0  0  0  0  0  0  0  0  0  0  0
  133.8470  132.7170  149.8880 C   0  0  0  0  0  3  0  0  0  0  0  0
  134.2560  132.3540  148.6000 C   0  0  0  0  0  3  0  0  0  0  0  0
  135.1550  133.1460  147.8670 C   0  0  0  0  0  0  0  0  0  0  0  0
  135.6190  134.3220  148.4860 C   0  0  0  0  0  3  0  0  0  0  0  0
  135.2270  134.6780  149.7830 C   0  0  0  0  0  3  0  0  0  0  0  0
  135.5940  132.7750  146.5010 C   0  0  0  0  0  0  0  0  0  0  0  0
  136.4430  131.6790  146.2650 C   0  0  0  0  0  3  0  0  0  0  0  0
  136.8320  131.3230  144.9690 C   0  0  0  0  0  3  0  0  0  0  0  0
  136.3720  132.0540  143.8780 C   0  0  0  0  0  3  0  0  0  0  0  0
  135.5390  133.1460  144.0820 C   0  0  0  0  0  3  0  0  0  0  0  0
  135.1660  133.5060  145.3780 C   0  0  0  0  0  3  0  0  0  0  0  0
  134.5400  134.4590  156.6670 C   0  0  0  0  0  2  0  0  0  0  0  0
  137.1430  137.2500  157.0180 C   0  0  0  0  0  0  0  0  0  0  0  0
  136.2730  136.3030  156.4610 C   0  0  0  0  0  3  0  0  0  0  0  0
  135.4400  135.5090  157.2730 C   0  0  0  0  0  0  0  0  0  0  0  0
  135.5040  135.6700  158.6630 C   0  0  0  0  0  3  0  0  0  0  0  0
  136.3720  136.6050  159.2320 C   0  0  0  0  0  3  0  0  0  0  0  0
  137.1810  137.3880  158.4110 C   0  0  0  0  0  0  0  0  0  0  0  0
  137.6750  138.2620  154.9270 C   0  0  0  0  0  1  0  0  0  0  0  0
  137.9810  138.0630  156.3010 O   0  0  0  0  0  0  0  0  0  0  0  0
  138.0330  138.3030  158.9740 O   0  0  0  0  0  0  0  0  0  0  0  0
  138.8780  138.4520  158.5950 H   0  0  0  0  0  0  0  0  0  0  0  0
  1 19  1  0  0  0  0
  2  3  2  0  0  0  0
  2  1  1  0  0  0  0
  4  1  1  0  0  0  0
  5  2  1  0  0  0  0
  6  5  2  0  0  0  0
  7  6  1  0  0  0  0
  8  7  1  0  0  0  0
  9  8  2  0  0  0  0
 10 11  2  0  0  0  0
 10  9  1  0  0  0  0
 11 12  1  0  0  0  0
 12  7  2  0  0  0  0
 13 10  1  0  0  0  0
 14 13  1  0  0  0  0
 15 14  2  0  0  0  0
 16 17  2  0  0  0  0
 16 15  1  0  0  0  0
 17 18  1  0  0  0  0
 18 13  2  0  0  0  0
 19 22  1  0  0  0  0
 20 25  1  0  0  0  0
 21 20  2  0  0  0  0
 21 22  1  0  0  0  0
 22 23  2  0  0  0  0
 23 24  1  0  0  0  0
 25 28  1  0  0  0  0
 25 24  2  0  0  0  0
 26 27  1  0  0  0  0
 27 20  1  0  0  0  0
 29 28  1  0  0  0  0
M  END
>  <MODEL>
4

>  <REMARK>
 VINA RESULT:    -8.554      7.391     11.197
 INTER + INTRA:         -12.523
 INTER:                 -11.779
 INTRA:                  -0.744
 UNBOUND:                -0.719
  Name = CHEMBL78895
  8 active torsions:
  status: ('A' for Active; 'I' for Inactive)
    1  A    between atoms: C_1  and  O_2
    2  A    between atoms: O_2  and  C_3
    3  A    between atoms: C_5  and  C_6
    4  A    between atoms: C_6  and  N_7
    5  A    between atoms: C_8  and  C_10
    6  A    between atoms: C_11  and  C_12
    7  A    between atoms: C_15  and  C_16
    8  A    between atoms: C_26  and  O_27
                            x       y       z     vdW  Elec       q    Type
                         _______ _______ _______ _____ _____    ______ ____

>  <TORSDO>
F 7

>  <SCORE>
-8.554

>  <RMSD_LB>
7.391

>  <RMSD_UB>
11.197

$$$$
CHEMBL78895
 OpenBabel10162523333D

 29 31  0  0  0  0  0  0  0  0999 V2000
  137.8930  136.9840  150.8710 N   0  0  0  0  0  0  0  0  0  0  0  0
  138.4380  138.2010  150.5540 C   0  0  0  0  0  0  0  0  0  0  0  0
  137.8740  139.0670  149.8980 O   0  0  0  0  0  0  0  0  0  0  0  0
  138.4310  136.3380  151.3840 H   0  0  0  0  0  0  0  0  0  0  0  0
  139.8130  138.3700  151.0840 C   0  0  0  0  0  3  0  0  0  0  0  0
  140.6360  137.3150  151.1620 C   0  0  0  0  0  3  0  0  0  0  0  0
  142.0040  137.3800  151.6920 C   0  0  0  0  0  0  0  0  0  0  0  0
  142.2790  137.7290  153.0170 C   0  0  0  0  0  3  0  0  0  0  0  0
  143.5940  137.7550  153.4950 C   0  0  0  0  0  3  0  0  0  0  0  0
  144.6790  137.4070  152.6740 C   0  0  0  0  0  0  0  0  0  0  0  0
  144.3800  137.0260  151.3530 C   0  0  0  0  0  3  0  0  0  0  0  0
  143.0680  137.0170  150.8650 C   0  0  0  0  0  3  0  0  0  0  0  0
  146.0750  137.4290  153.1690 C   0  0  0  0  0  0  0  0  0  0  0  0
  147.1760  137.3790  152.2940 C   0  0  0  0  0  3  0  0  0  0  0  0
  148.4900  137.4220  152.7720 C   0  0  0  0  0  3  0  0  0  0  0  0
  148.7320  137.5260  154.1380 C   0  0  0  0  0  3  0  0  0  0  0  0
  147.6650  137.5690  155.0250 C   0  0  0  0  0  3  0  0  0  0  0  0
  146.3560  137.5090  154.5460 C   0  0  0  0  0  3  0  0  0  0  0  0
  136.5510  136.6220  150.4740 C   0  0  0  0  0  2  0  0  0  0  0  0
  135.4880  135.0550  153.8060 C   0  0  0  0  0  0  0  0  0  0  0  0
  136.1050  135.8880  152.8640 C   0  0  0  0  0  3  0  0  0  0  0  0
  135.8460  135.7510  151.4860 C   0  0  0  0  0  0  0  0  0  0  0  0
  134.9650  134.7470  151.0640 C   0  0  0  0  0  3  0  0  0  0  0  0
  134.3490  133.9050  151.9920 C   0  0  0  0  0  3  0  0  0  0  0  0
  134.6100  134.0630  153.3510 C   0  0  0  0  0  0  0  0  0  0  0  0
  136.7930  135.8810  155.6200 C   0  0  0  0  0  1  0  0  0  0  0  0
  135.6800  135.1250  155.1620 O   0  0  0  0  0  0  0  0  0  0  0  0
  134.0040  133.2330  154.2590 O   0  0  0  0  0  0  0  0  0  0  0  0
  133.6280  132.4220  153.9760 H   0  0  0  0  0  0  0  0  0  0  0  0
  1  4  1  0  0  0  0
  2  1  1  0  0  0  0
  2  5  1  0  0  0  0
  3  2  2  0  0  0  0
  5  6  2  0  0  0  0
  6  7  1  0  0  0  0
  7  8  1  0  0  0  0
  8  9  2  0  0  0  0
 10 13  1  0  0  0  0
 10  9  1  0  0  0  0
 11 10  2  0  0  0  0
 12 11  1  0  0  0  0
 12  7  2  0  0  0  0
 13 18  1  0  0  0  0
 14 15  1  0  0  0  0
 14 13  2  0  0  0  0
 15 16  2  0  0  0  0
 16 17  1  0  0  0  0
 18 17  2  0  0  0  0
 19  1  1  0  0  0  0
 19 22  1  0  0  0  0
 20 27  1  0  0  0  0
 21 20  2  0  0  0  0
 22 21  1  0  0  0  0
 23 22  2  0  0  0  0
 23 24  1  0  0  0  0
 24 25  2  0  0  0  0
 25 20  1  0  0  0  0
 25 28  1  0  0  0  0
 27 26  1  0  0  0  0
 29 28  1  0  0  0  0
M  END
>  <MODEL>
5

>  <REMARK>
 VINA RESULT:    -8.455      4.383     10.190
 INTER + INTRA:         -12.387
 INTER:                 -11.517
 INTRA:                  -0.870
 UNBOUND:                -0.719
  Name = CHEMBL78895
  8 active torsions:
  status: ('A' for Active; 'I' for Inactive)
    1  A    between atoms: C_1  and  O_2
    2  A    between atoms: O_2  and  C_3
    3  A    between atoms: C_5  and  C_6
    4  A    between atoms: C_6  and  N_7
    5  A    between atoms: C_8  and  C_10
    6  A    between atoms: C_11  and  C_12
    7  A    between atoms: C_15  and  C_16
    8  A    between atoms: C_26  and  O_27
                            x       y       z     vdW  Elec       q    Type
                         _______ _______ _______ _____ _____    ______ ____

>  <TORSDO>
F 7

>  <SCORE>
-8.455

>  <RMSD_LB>
4.383

>  <RMSD_UB>
10.190

$$$$
CHEMBL78895
 OpenBabel10162523333D

 29 31  0  0  0  0  0  0  0  0999 V2000
  138.8300  137.4570  155.2380 N   0  0  0  0  0  0  0  0  0  0  0  0
  139.3300  138.5330  154.5520 C   0  0  0  0  0  0  0  0  0  0  0  0
  138.7500  139.6020  154.4140 O   0  0  0  0  0  0  0  0  0  0  0  0
  139.3580  136.6270  155.2770 H   0  0  0  0  0  0  0  0  0  0  0  0
  140.6690  138.2700  153.9680 C   0  0  0  0  0  3  0  0  0  0  0  0
  140.7800  137.9150  152.6810 C   0  0  0  0  0  3  0  0  0  0  0  0
  142.0570  137.6130  152.0220 C   0  0  0  0  0  0  0  0  0  0  0  0
  143.2920  137.8750  152.6230 C   0  0  0  0  0  3  0  0  0  0  0  0
  144.4890  137.5500  151.9760 C   0  0  0  0  0  3  0  0  0  0  0  0
  144.4950  136.9270  150.7160 C   0  0  0  0  0  0  0  0  0  0  0  0
  143.2430  136.6400  150.1420 C   0  0  0  0  0  3  0  0  0  0  0  0
  142.0430  136.9810  150.7780 C   0  0  0  0  0  3  0  0  0  0  0  0
  145.7560  136.5750  150.0220 C   0  0  0  0  0  0  0  0  0  0  0  0
  146.1530  137.2110  148.8320 C   0  0  0  0  0  3  0  0  0  0  0  0
  147.3560  136.8870  148.1970 C   0  0  0  0  0  3  0  0  0  0  0  0
  148.1970  135.9240  148.7460 C   0  0  0  0  0  3  0  0  0  0  0  0
  147.8270  135.2740  149.9160 C   0  0  0  0  0  3  0  0  0  0  0  0
  146.6180  135.5890  150.5380 C   0  0  0  0  0  3  0  0  0  0  0  0
  137.5490  137.5070  155.9070 C   0  0  0  0  0  2  0  0  0  0  0  0
  134.7730  134.8660  155.8220 C   0  0  0  0  0  0  0  0  0  0  0  0
  135.6500  135.8600  156.2730 C   0  0  0  0  0  3  0  0  0  0  0  0
  136.5750  136.4690  155.4020 C   0  0  0  0  0  0  0  0  0  0  0  0
  136.6160  136.0510  154.0660 C   0  0  0  0  0  3  0  0  0  0  0  0
  135.7510  135.0560  153.6050 C   0  0  0  0  0  3  0  0  0  0  0  0
  134.8370  134.4730  154.4800 C   0  0  0  0  0  0  0  0  0  0  0  0
  133.8730  134.4940  157.9970 C   0  0  0  0  0  1  0  0  0  0  0  0
  133.8420  134.2280  156.6010 O   0  0  0  0  0  0  0  0  0  0  0  0
  133.9920  133.4940  154.0240 O   0  0  0  0  0  0  0  0  0  0  0  0
  133.9980  133.2530  153.1180 H   0  0  0  0  0  0  0  0  0  0  0  0
  1  4  1  0  0  0  0
  1 19  1  0  0  0  0
  2  1  1  0  0  0  0
  3  2  2  0  0  0  0
  5  2  1  0  0  0  0
  6  5  2  0  0  0  0
  7  8  1  0  0  0  0
  7  6  1  0  0  0  0
  9  8  2  0  0  0  0
 10  9  1  0  0  0  0
 11 10  2  0  0  0  0
 11 12  1  0  0  0  0
 12  7  2  0  0  0  0
 13 18  1  0  0  0  0
 13 10  1  0  0  0  0
 14 13  2  0  0  0  0
 15 16  2  0  0  0  0
 15 14  1  0  0  0  0
 16 17  1  0  0  0  0
 17 18  2  0  0  0  0
 20 21  1  0  0  0  0
 20 27  1  0  0  0  0
 22 19  1  0  0  0  0
 22 21  2  0  0  0  0
 23 22  1  0  0  0  0
 24 23  2  0  0  0  0
 24 25  1  0  0  0  0
 25 20  2  0  0  0  0
 27 26  1  0  0  0  0
 28 25  1  0  0  0  0
 29 28  1  0  0  0  0
M  END
>  <MODEL>
6

>  <REMARK>
 VINA RESULT:    -8.411      4.448     10.902
 INTER + INTRA:         -12.326
 INTER:                 -11.508
 INTRA:                  -0.818
 UNBOUND:                -0.719
  Name = CHEMBL78895
  8 active torsions:
  status: ('A' for Active; 'I' for Inactive)
    1  A    between atoms: C_1  and  O_2
    2  A    between atoms: O_2  and  C_3
    3  A    between atoms: C_5  and  C_6
    4  A    between atoms: C_6  and  N_7
    5  A    between atoms: C_8  and  C_10
    6  A    between atoms: C_11  and  C_12
    7  A    between atoms: C_15  and  C_16
    8  A    between atoms: C_26  and  O_27
                            x       y       z     vdW  Elec       q    Type
                         _______ _______ _______ _____ _____    ______ ____

>  <TORSDO>
F 7

>  <SCORE>
-8.411

>  <RMSD_LB>
4.448

>  <RMSD_UB>
10.902

$$$$
CHEMBL78895
 OpenBabel10162523333D

 29 31  0  0  0  0  0  0  0  0999 V2000
  138.5430  137.6140  154.6840 N   0  0  0  0  0  0  0  0  0  0  0  0
  139.5140  138.5260  154.3670 C   0  0  0  0  0  0  0  0  0  0  0  0
  139.4230  139.7340  154.5500 O   0  0  0  0  0  0  0  0  0  0  0  0
  138.6940  136.6630  154.4770 H   0  0  0  0  0  0  0  0  0  0  0  0
  140.7130  137.9010  153.7560 C   0  0  0  0  0  3  0  0  0  0  0  0
  140.9290  138.0120  152.4390 C   0  0  0  0  0  3  0  0  0  0  0  0
  142.0730  137.4100  151.7420 C   0  0  0  0  0  0  0  0  0  0  0  0
  141.9670  136.8660  150.4590 C   0  0  0  0  0  3  0  0  0  0  0  0
  143.0850  136.3230  149.8150 C   0  0  0  0  0  3  0  0  0  0  0  0
  144.3530  136.3290  150.4190 C   0  0  0  0  0  0  0  0  0  0  0  0
  144.4470  136.9110  151.6960 C   0  0  0  0  0  3  0  0  0  0  0  0
  143.3270  137.4380  152.3520 C   0  0  0  0  0  3  0  0  0  0  0  0
  145.5440  135.7600  149.7460 C   0  0  0  0  0  0  0  0  0  0  0  0
  146.7940  135.6780  150.3880 C   0  0  0  0  0  3  0  0  0  0  0  0
  147.9060  135.1180  149.7510 C   0  0  0  0  0  3  0  0  0  0  0  0
  147.7910  134.6180  148.4580 C   0  0  0  0  0  3  0  0  0  0  0  0
  146.5720  134.6920  147.7970 C   0  0  0  0  0  3  0  0  0  0  0  0
  145.4680  135.2660  148.4300 C   0  0  0  0  0  3  0  0  0  0  0  0
  137.3010  138.0070  155.3110 C   0  0  0  0  0  2  0  0  0  0  0  0
  134.7350  135.1670  155.1220 C   0  0  0  0  0  0  0  0  0  0  0  0
  135.5750  136.2280  154.7600 C   0  0  0  0  0  3  0  0  0  0  0  0
  136.4330  136.8330  155.6980 C   0  0  0  0  0  0  0  0  0  0  0  0
  136.4230  136.3660  157.0190 C   0  0  0  0  0  3  0  0  0  0  0  0
  135.5850  135.3140  157.3940 C   0  0  0  0  0  3  0  0  0  0  0  0
  134.7510  134.7210  156.4490 C   0  0  0  0  0  0  0  0  0  0  0  0
  134.3140  134.3200  152.9340 C   0  0  0  0  0  1  0  0  0  0  0  0
  133.8750  134.5210  154.2710 O   0  0  0  0  0  0  0  0  0  0  0  0
  133.9280  133.6900  156.8230 O   0  0  0  0  0  0  0  0  0  0  0  0
  133.0230  133.8550  157.0060 H   0  0  0  0  0  0  0  0  0  0  0  0
  1 19  1  0  0  0  0
  2  3  2  0  0  0  0
  2  1  1  0  0  0  0
  4  1  1  0  0  0  0
  5  2  1  0  0  0  0
  6  5  2  0  0  0  0
  7 12  1  0  0  0  0
  7  6  1  0  0  0  0
  8  7  2  0  0  0  0
  9 10  2  0  0  0  0
  9  8  1  0  0  0  0
 10 11  1  0  0  0  0
 11 12  2  0  0  0  0
 13 14  1  0  0  0  0
 13 10  1  0  0  0  0
 15 14  2  0  0  0  0
 16 15  1  0  0  0  0
 17 18  1  0  0  0  0
 17 16  2  0  0  0  0
 18 13  2  0  0  0  0
 19 22  1  0  0  0  0
 20 25  1  0  0  0  0
 21 20  2  0  0  0  0
 21 22  1  0  0  0  0
 22 23  2  0  0  0  0
 23 24  1  0  0  0  0
 25 28  1  0  0  0  0
 25 24  2  0  0  0  0
 26 27  1  0  0  0  0
 27 20  1  0  0  0  0
 28 29  1  0  0  0  0
M  END
>  <MODEL>
7

>  <REMARK>
 VINA RESULT:    -8.372      4.652     10.906
 INTER + INTRA:         -12.273
 INTER:                 -11.543
 INTRA:                  -0.730
 UNBOUND:                -0.719
  Name = CHEMBL78895
  8 active torsions:
  status: ('A' for Active; 'I' for Inactive)
    1  A    between atoms: C_1  and  O_2
    2  A    between atoms: O_2  and  C_3
    3  A    between atoms: C_5  and  C_6
    4  A    between atoms: C_6  and  N_7
    5  A    between atoms: C_8  and  C_10
    6  A    between atoms: C_11  and  C_12
    7  A    between atoms: C_15  and  C_16
    8  A    between atoms: C_26  and  O_27
                            x       y       z     vdW  Elec       q    Type
                         _______ _______ _______ _____ _____    ______ ____

>  <TORSDO>
F 7

>  <SCORE>
-8.372

>  <RMSD_LB>
4.652

>  <RMSD_UB>
10.906

$$$$
CHEMBL78895
 OpenBabel10162523333D

 29 31  0  0  0  0  0  0  0  0999 V2000
  133.0990  134.6090  149.5800 N   0  0  0  0  0  0  0  0  0  0  0  0
  133.8030  133.5870  150.1610 C   0  0  0  0  0  0  0  0  0  0  0  0
  134.1960  132.5890  149.5710 O   0  0  0  0  0  0  0  0  0  0  0  0
  132.8010  135.3630  150.1400 H   0  0  0  0  0  0  0  0  0  0  0  0
  134.0390  133.8020  151.6100 C   0  0  0  0  0  3  0  0  0  0  0  0
  134.9270  134.7200  152.0140 C   0  0  0  0  0  3  0  0  0  0  0  0
  135.2450  134.9880  153.4230 C   0  0  0  0  0  0  0  0  0  0  0  0
  136.2600  135.8680  153.8080 C   0  0  0  0  0  3  0  0  0  0  0  0
  136.5180  136.1180  155.1610 C   0  0  0  0  0  3  0  0  0  0  0  0
  135.7540  135.5190  156.1760 C   0  0  0  0  0  0  0  0  0  0  0  0
  134.7150  134.6620  155.7680 C   0  0  0  0  0  3  0  0  0  0  0  0
  134.4660  134.3940  154.4170 C   0  0  0  0  0  3  0  0  0  0  0  0
  136.0150  135.7780  157.6110 C   0  0  0  0  0  0  0  0  0  0  0  0
  135.7150  134.8300  158.6060 C   0  0  0  0  0  3  0  0  0  0  0  0
  135.9880  135.0760  159.9550 C   0  0  0  0  0  3  0  0  0  0  0  0
  136.5760  136.2770  160.3390 C   0  0  0  0  0  3  0  0  0  0  0  0
  136.8760  137.2350  159.3810 C   0  0  0  0  0  3  0  0  0  0  0  0
  136.5880  136.9920  158.0360 C   0  0  0  0  0  3  0  0  0  0  0  0
  132.7800  134.6130  148.1710 C   0  0  0  0  0  2  0  0  0  0  0  0
  135.1440  137.3690  146.9440 C   0  0  0  0  0  0  0  0  0  0  0  0
  134.6550  136.2200  147.5790 C   0  0  0  0  0  3  0  0  0  0  0  0
  133.3100  135.8260  147.4440 C   0  0  0  0  0  0  0  0  0  0  0  0
  132.4520  136.6180  146.6700 C   0  0  0  0  0  3  0  0  0  0  0  0
  132.9240  137.7700  146.0370 C   0  0  0  0  0  3  0  0  0  0  0  0
  134.2610  138.1370  146.1740 C   0  0  0  0  0  0  0  0  0  0  0  0
  136.8740  138.3310  148.2700 C   0  0  0  0  0  1  0  0  0  0  0  0
  136.4370  137.8180  147.0190 O   0  0  0  0  0  0  0  0  0  0  0  0
  134.7200  139.2700  145.5530 O   0  0  0  0  0  0  0  0  0  0  0  0
  135.5820  139.2860  145.1850 H   0  0  0  0  0  0  0  0  0  0  0  0
  1  4  1  0  0  0  0
  1  2  1  0  0  0  0
  2  5  1  0  0  0  0
  3  2  2  0  0  0  0
  5  6  2  0  0  0  0
  6  7  1  0  0  0  0
  7  8  2  0  0  0  0
  7 12  1  0  0  0  0
  8  9  1  0  0  0  0
  9 10  2  0  0  0  0
 10 13  1  0  0  0  0
 11 10  1  0  0  0  0
 12 11  2  0  0  0  0
 13 18  2  0  0  0  0
 13 14  1  0  0  0  0
 14 15  2  0  0  0  0
 15 16  1  0  0  0  0
 17 16  2  0  0  0  0
 18 17  1  0  0  0  0
 19  1  1  0  0  0  0
 20 27  1  0  0  0  0
 20 21  1  0  0  0  0
 22 21  2  0  0  0  0
 22 19  1  0  0  0  0
 23 22  1  0  0  0  0
 24 25  1  0  0  0  0
 24 23  2  0  0  0  0
 25 20  2  0  0  0  0
 27 26  1  0  0  0  0
 28 25  1  0  0  0  0
 29 28  1  0  0  0  0
M  END
>  <MODEL>
8

>  <REMARK>
 VINA RESULT:    -8.315      7.646      9.805
 INTER + INTRA:         -12.194
 INTER:                 -11.263
 INTRA:                  -0.932
 UNBOUND:                -0.719
  Name = CHEMBL78895
  8 active torsions:
  status: ('A' for Active; 'I' for Inactive)
    1  A    between atoms: C_1  and  O_2
    2  A    between atoms: O_2  and  C_3
    3  A    between atoms: C_5  and  C_6
    4  A    between atoms: C_6  and  N_7
    5  A    between atoms: C_8  and  C_10
    6  A    between atoms: C_11  and  C_12
    7  A    between atoms: C_15  and  C_16
    8  A    between atoms: C_26  and  O_27
                            x       y       z     vdW  Elec       q    Type
                         _______ _______ _______ _____ _____    ______ ____

>  <TORSDO>
F 7

>  <SCORE>
-8.315

>  <RMSD_LB>
7.646

>  <RMSD_UB>
9.805

$$$$
CHEMBL78895
 OpenBabel10162523333D

 29 31  0  0  0  0  0  0  0  0999 V2000
  134.2800  134.5760  152.1530 N   0  0  0  0  0  0  0  0  0  0  0  0
  133.4250  134.6690  151.0860 C   0  0  0  0  0  0  0  0  0  0  0  0
  132.2060  134.7470  151.1740 O   0  0  0  0  0  0  0  0  0  0  0  0
  135.2470  134.4930  151.9850 H   0  0  0  0  0  0  0  0  0  0  0  0
  134.1310  134.6560  149.7810 C   0  0  0  0  0  3  0  0  0  0  0  0
  134.0170  133.5970  148.9680 C   0  0  0  0  0  3  0  0  0  0  0  0
  134.6950  133.4830  147.6710 C   0  0  0  0  0  0  0  0  0  0  0  0
  136.0640  133.2240  147.5600 C   0  0  0  0  0  3  0  0  0  0  0  0
  136.6720  133.0960  146.3060 C   0  0  0  0  0  3  0  0  0  0  0  0
  135.9290  133.1960  145.1180 C   0  0  0  0  0  0  0  0  0  0  0  0
  134.5470  133.4230  145.2500 C   0  0  0  0  0  3  0  0  0  0  0  0
  133.9380  133.5710  146.5020 C   0  0  0  0  0  3  0  0  0  0  0  0
  136.5600  133.0590  143.7850 C   0  0  0  0  0  0  0  0  0  0  0  0
  136.5730  134.1150  142.8550 C   0  0  0  0  0  3  0  0  0  0  0  0
  137.1920  133.9830  141.6080 C   0  0  0  0  0  3  0  0  0  0  0  0
  137.8220  132.7910  141.2660 C   0  0  0  0  0  3  0  0  0  0  0  0
  137.8180  131.7280  142.1600 C   0  0  0  0  0  3  0  0  0  0  0  0
  137.1860  131.8590  143.3970 C   0  0  0  0  0  3  0  0  0  0  0  0
  133.8020  134.5960  153.5170 C   0  0  0  0  0  2  0  0  0  0  0  0
  135.6520  135.2100  156.8170 C   0  0  0  0  0  0  0  0  0  0  0  0
  134.7020  134.7720  155.8850 C   0  0  0  0  0  3  0  0  0  0  0  0
  134.8550  135.0310  154.5090 C   0  0  0  0  0  0  0  0  0  0  0  0
  135.9740  135.7550  154.0810 C   0  0  0  0  0  3  0  0  0  0  0  0
  136.9250  136.2040  155.0000 C   0  0  0  0  0  3  0  0  0  0  0  0
  136.7620  135.9290  156.3560 C   0  0  0  0  0  0  0  0  0  0  0  0
  134.2890  134.9910  158.7590 C   0  0  0  0  0  1  0  0  0  0  0  0
  135.5820  134.9970  158.1690 O   0  0  0  0  0  0  0  0  0  0  0  0
  137.6970  136.3740  157.2550 O   0  0  0  0  0  0  0  0  0  0  0  0
  137.8900  137.2890  157.3170 H   0  0  0  0  0  0  0  0  0  0  0  0
  1 19  1  0  0  0  0
  2  3  2  0  0  0  0
  2  1  1  0  0  0  0
  4  1  1  0  0  0  0
  5  2  1  0  0  0  0
  6  5  2  0  0  0  0
  7  6  1  0  0  0  0
  8  7  1  0  0  0  0
  9  8  2  0  0  0  0
 10 11  2  0  0  0  0
 10  9  1  0  0  0  0
 11 12  1  0  0  0  0
 12  7  2  0  0  0  0
 13 10  1  0  0  0  0
 14 13  2  0  0  0  0
 15 14  1  0  0  0  0
 16 15  2  0  0  0  0
 16 17  1  0  0  0  0
 17 18  2  0  0  0  0
 18 13  1  0  0  0  0
 19 22  1  0  0  0  0
 20 27  1  0  0  0  0
 21 20  2  0  0  0  0
 22 21  1  0  0  0  0
 23 22  2  0  0  0  0
 23 24  1  0  0  0  0
 24 25  2  0  0  0  0
 25 20  1  0  0  0  0
 25 28  1  0  0  0  0
 27 26  1  0  0  0  0
 28 29  1  0  0  0  0
M  END
>  <MODEL>
9

>  <REMARK>
 VINA RESULT:    -8.314      8.610     12.660
 INTER + INTRA:         -12.192
 INTER:                 -11.473
 INTRA:                  -0.719
 UNBOUND:                -0.719
  Name = CHEMBL78895
  8 active torsions:
  status: ('A' for Active; 'I' for Inactive)
    1  A    between atoms: C_1  and  O_2
    2  A    between atoms: O_2  and  C_3
    3  A    between atoms: C_5  and  C_6
    4  A    between atoms: C_6  and  N_7
    5  A    between atoms: C_8  and  C_10
    6  A    between atoms: C_11  and  C_12
    7  A    between atoms: C_15  and  C_16
    8  A    between atoms: C_26  and  O_27
                            x       y       z     vdW  Elec       q    Type
                         _______ _______ _______ _____ _____    ______ ____

>  <TORSDO>
F 7

>  <SCORE>
-8.314

>  <RMSD_LB>
8.610

>  <RMSD_UB>
12.660

$$$$
