CHEMBL193046
 OpenBabel10162523413D

 25 25  0  0  0  0  0  0  0  0999 V2000
  143.8090  139.6560  155.2830 C   0  0  0  0  0  2  0  0  0  0  0  0
  141.9790  137.8770  152.4200 C   0  0  0  0  0  0  0  0  0  0  0  0
  143.0120  138.4280  153.1980 C   0  0  0  0  0  3  0  0  0  0  0  0
  142.7270  139.0880  154.4000 C   0  0  0  0  0  0  0  0  0  0  0  0
  141.3870  139.2060  154.8140 C   0  0  0  0  0  3  0  0  0  0  0  0
  140.3510  138.6630  154.0540 C   0  0  0  0  0  0  0  0  0  0  0  0
  140.6570  138.0000  152.8590 C   0  0  0  0  0  0  0  0  0  0  0  0
  142.6040  136.6100  150.1940 C   0  0  0  0  0  3  0  0  0  0  0  0
  142.3140  137.1970  151.2060 C   0  0  0  0  0  0  0  0  0  0  0  0
  139.0170  138.7100  154.3770 O   0  0  0  0  0  0  0  0  0  0  0  0
  138.6520  138.1490  155.6350 C   0  0  0  0  0  1  0  0  0  0  0  0
  139.6320  137.4640  152.1180 O   0  0  0  0  0  0  0  0  0  0  0  0
  139.8080  137.0800  151.2820 H   0  0  0  0  0  0  0  0  0  0  0  0
  144.9740  140.0640  154.5330 N   0  0  0  0  0  0  0  0  0  0  0  0
  146.1870  139.4440  154.7420 C   0  0  0  0  0  0  0  0  0  0  0  0
  146.3750  138.6160  155.6280 O   0  0  0  0  0  0  0  0  0  0  0  0
  144.9010  140.7880  153.8720 H   0  0  0  0  0  0  0  0  0  0  0  0
  147.2840  139.9210  153.8100 C   0  0  0  0  0  2  0  0  0  0  0  0
  147.6400  141.3770  154.0910 C   0  0  0  0  0  2  0  0  0  0  0  0
  148.6960  141.9030  153.1220 C   0  0  0  0  0  2  0  0  0  0  0  0
  148.3920  141.4250  151.7030 C   0  0  0  0  0  2  0  0  0  0  0  0
  148.0830  142.5970  150.7770 C   0  0  0  0  0  2  0  0  0  0  0  0
  146.6910  142.4490  150.1660 C   0  0  0  0  0  2  0  0  0  0  0  0
  145.6210  142.3800  151.2500 C   0  0  0  0  0  2  0  0  0  0  0  0
  144.7380  141.1570  151.0720 C   0  0  0  0  0  1  0  0  0  0  0  0
  2  7  2  0  0  0  0
  2  3  1  0  0  0  0
  3  4  2  0  0  0  0
  4  5  1  0  0  0  0
  4  1  1  0  0  0  0
  6 10  1  0  0  0  0
  6  5  2  0  0  0  0
  7  6  1  0  0  0  0
  8  9  3  0  0  0  0
  9  2  1  0  0  0  0
 10 11  1  0  0  0  0
 12  7  1  0  0  0  0
 13 12  1  0  0  0  0
 14 15  1  0  0  0  0
 14  1  1  0  0  0  0
 15 16  2  0  0  0  0
 17 14  1  0  0  0  0
 18 19  1  0  0  0  0
 18 15  1  0  0  0  0
 20 19  1  0  0  0  0
 21 20  1  0  0  0  0
 22 21  1  0  0  0  0
 23 22  1  0  0  0  0
 23 24  1  0  0  0  0
 25 24  1  0  0  0  0
M  END
>  <MODEL>
1

>  <REMARK>
 VINA RESULT:    -6.247      0.000      0.000
 INTER + INTRA:         -12.146
 INTER:                 -10.680
 INTRA:                  -1.466
 UNBOUND:                -1.699
  Name = CHEMBL193046
  14 active torsions:
  status: ('A' for Active; 'I' for Inactive)
    1  A    between atoms: C_2  and  C_3
    2  A    between atoms: C_5  and  C_6
    3  A    between atoms: C_6  and  N_7
    4  A    between atoms: C_8  and  C_10
    5  A    between atoms: C_10  and  C_11
    6  A    between atoms: C_11  and  C_12
    7  A    between atoms: C_12  and  C_13
    8  A    between atoms: C_13  and  C_14
    9  A    between atoms: C_14  and  C_15
   10  A    between atoms: C_15  and  C_16
   11  A    between atoms: C_16  and  C_17
   12  A    between atoms: C_19  and  O_20
   13  A    between atoms: O_20  and  C_21
   14  A    between atoms: C_22  and  O_23
                            x       y       z     vdW  Elec       q    Type
                         _______ _______ _______ _____ _____    ______ ____

>  <TORSDO>
F 12

>  <SCORE>
-6.247

>  <RMSD_LB>
0.000

>  <RMSD_UB>
0.000

$$$$
CHEMBL193046
 OpenBabel10162523413D

 25 25  0  0  0  0  0  0  0  0999 V2000
  137.1750  137.6530  155.7270 C   0  0  0  0  0  2  0  0  0  0  0  0
  135.6220  135.0000  153.4340 C   0  0  0  0  0  0  0  0  0  0  0  0
  136.3870  136.0940  153.8720 C   0  0  0  0  0  3  0  0  0  0  0  0
  136.3390  136.5110  155.2090 C   0  0  0  0  0  0  0  0  0  0  0  0
  135.5000  135.8260  156.1080 C   0  0  0  0  0  3  0  0  0  0  0  0
  134.7350  134.7370  155.6890 C   0  0  0  0  0  0  0  0  0  0  0  0
  134.8040  134.3300  154.3500 C   0  0  0  0  0  0  0  0  0  0  0  0
  135.7840  134.2750  150.9040 C   0  0  0  0  0  3  0  0  0  0  0  0
  135.7120  134.5960  152.0630 C   0  0  0  0  0  0  0  0  0  0  0  0
  133.9010  133.9950  156.4880 O   0  0  0  0  0  0  0  0  0  0  0  0
  133.7640  134.4330  157.8370 C   0  0  0  0  0  1  0  0  0  0  0  0
  134.0520  133.2550  153.9460 O   0  0  0  0  0  0  0  0  0  0  0  0
  134.1330  132.9270  153.0720 H   0  0  0  0  0  0  0  0  0  0  0  0
  138.2320  138.0190  154.8140 N   0  0  0  0  0  0  0  0  0  0  0  0
  139.5230  138.1760  155.2740 C   0  0  0  0  0  0  0  0  0  0  0  0
  139.8230  138.1310  156.4620 O   0  0  0  0  0  0  0  0  0  0  0  0
  138.0310  138.1580  153.8620 H   0  0  0  0  0  0  0  0  0  0  0  0
  140.5300  138.4650  154.1770 C   0  0  0  0  0  2  0  0  0  0  0  0
  139.8530  138.4890  152.8110 C   0  0  0  0  0  2  0  0  0  0  0  0
  140.4070  137.4130  151.8810 C   0  0  0  0  0  2  0  0  0  0  0  0
  141.6110  137.9540  151.1120 C   0  0  0  0  0  2  0  0  0  0  0  0
  142.8720  137.1500  151.4150 C   0  0  0  0  0  2  0  0  0  0  0  0
  143.7770  137.9100  152.3810 C   0  0  0  0  0  2  0  0  0  0  0  0
  143.9370  137.1510  153.6950 C   0  0  0  0  0  2  0  0  0  0  0  0
  145.3580  136.6400  153.8630 C   0  0  0  0  0  1  0  0  0  0  0  0
  2  3  2  0  0  0  0
  2  7  1  0  0  0  0
  3  4  1  0  0  0  0
  4  1  1  0  0  0  0
  4  5  2  0  0  0  0
  6  5  1  0  0  0  0
  6 10  1  0  0  0  0
  7  6  2  0  0  0  0
  8  9  3  0  0  0  0
  9  2  1  0  0  0  0
 10 11  1  0  0  0  0
 12  7  1  0  0  0  0
 13 12  1  0  0  0  0
 14 15  1  0  0  0  0
 14  1  1  0  0  0  0
 15 16  2  0  0  0  0
 17 14  1  0  0  0  0
 18 15  1  0  0  0  0
 19 18  1  0  0  0  0
 20 19  1  0  0  0  0
 21 22  1  0  0  0  0
 21 20  1  0  0  0  0
 22 23  1  0  0  0  0
 23 24  1  0  0  0  0
 24 25  1  0  0  0  0
M  END
>  <MODEL>
2

>  <REMARK>
 VINA RESULT:    -6.076      4.257      7.094
 INTER + INTRA:         -11.861
 INTER:                 -10.732
 INTRA:                  -1.129
 UNBOUND:                -1.699
  Name = CHEMBL193046
  14 active torsions:
  status: ('A' for Active; 'I' for Inactive)
    1  A    between atoms: C_2  and  C_3
    2  A    between atoms: C_5  and  C_6
    3  A    between atoms: C_6  and  N_7
    4  A    between atoms: C_8  and  C_10
    5  A    between atoms: C_10  and  C_11
    6  A    between atoms: C_11  and  C_12
    7  A    between atoms: C_12  and  C_13
    8  A    between atoms: C_13  and  C_14
    9  A    between atoms: C_14  and  C_15
   10  A    between atoms: C_15  and  C_16
   11  A    between atoms: C_16  and  C_17
   12  A    between atoms: C_19  and  O_20
   13  A    between atoms: O_20  and  C_21
   14  A    between atoms: C_22  and  O_23
                            x       y       z     vdW  Elec       q    Type
                         _______ _______ _______ _____ _____    ______ ____

>  <TORSDO>
F 12

>  <SCORE>
-6.076

>  <RMSD_LB>
4.257

>  <RMSD_UB>
7.094

$$$$
CHEMBL193046
 OpenBabel10162523413D

 25 25  0  0  0  0  0  0  0  0999 V2000
  144.2870  137.0490  150.7590 C   0  0  0  0  0  2  0  0  0  0  0  0
  141.0460  138.0520  152.5480 C   0  0  0  0  0  0  0  0  0  0  0  0
  141.9250  137.4980  151.6020 C   0  0  0  0  0  3  0  0  0  0  0  0
  143.3100  137.6610  151.7300 C   0  0  0  0  0  0  0  0  0  0  0  0
  143.8130  138.4030  152.8160 C   0  0  0  0  0  3  0  0  0  0  0  0
  142.9540  138.9570  153.7650 C   0  0  0  0  0  0  0  0  0  0  0  0
  141.5720  138.7760  153.6230 C   0  0  0  0  0  0  0  0  0  0  0  0
  138.4520  137.6680  152.2730 C   0  0  0  0  0  3  0  0  0  0  0  0
  139.6380  137.8480  152.3890 C   0  0  0  0  0  0  0  0  0  0  0  0
  143.3430  139.6800  154.8660 O   0  0  0  0  0  0  0  0  0  0  0  0
  144.7160  139.5810  155.2340 C   0  0  0  0  0  1  0  0  0  0  0  0
  140.7330  139.3200  154.5650 O   0  0  0  0  0  0  0  0  0  0  0  0
  140.1960  138.7630  155.0930 H   0  0  0  0  0  0  0  0  0  0  0  0
  145.4340  137.8940  150.5250 N   0  0  0  0  0  0  0  0  0  0  0  0
  145.3850  138.8800  149.5620 C   0  0  0  0  0  0  0  0  0  0  0  0
  144.4420  139.0190  148.7910 O   0  0  0  0  0  0  0  0  0  0  0  0
  146.2530  137.7660  151.0540 H   0  0  0  0  0  0  0  0  0  0  0  0
  146.6330  139.7400  149.5070 C   0  0  0  0  0  2  0  0  0  0  0  0
  146.3200  141.1130  148.9210 C   0  0  0  0  0  2  0  0  0  0  0  0
  146.7740  142.2430  149.8420 C   0  0  0  0  0  2  0  0  0  0  0  0
  145.6190  142.6850  150.7390 C   0  0  0  0  0  2  0  0  0  0  0  0
  145.8620  142.2880  152.1920 C   0  0  0  0  0  2  0  0  0  0  0  0
  147.3370  141.9700  152.4250 C   0  0  0  0  0  2  0  0  0  0  0  0
  147.5800  141.5210  153.8630 C   0  0  0  0  0  2  0  0  0  0  0  0
  148.9350  141.9910  154.3620 C   0  0  0  0  0  1  0  0  0  0  0  0
  1  4  1  0  0  0  0
  2  7  1  0  0  0  0
  3  4  1  0  0  0  0
  3  2  2  0  0  0  0
  4  5  2  0  0  0  0
  5  6  1  0  0  0  0
  6 10  1  0  0  0  0
  7  6  2  0  0  0  0
  7 12  1  0  0  0  0
  8  9  3  0  0  0  0
  9  2  1  0  0  0  0
 10 11  1  0  0  0  0
 12 13  1  0  0  0  0
 14  1  1  0  0  0  0
 14 17  1  0  0  0  0
 15 14  1  0  0  0  0
 16 15  2  0  0  0  0
 18 15  1  0  0  0  0
 19 18  1  0  0  0  0
 19 20  1  0  0  0  0
 20 21  1  0  0  0  0
 21 22  1  0  0  0  0
 22 23  1  0  0  0  0
 23 24  1  0  0  0  0
 24 25  1  0  0  0  0
M  END
>  <MODEL>
3

>  <REMARK>
 VINA RESULT:    -5.980      2.205      4.108
 INTER + INTRA:         -11.700
 INTER:                 -10.489
 INTRA:                  -1.211
 UNBOUND:                -1.699
  Name = CHEMBL193046
  14 active torsions:
  status: ('A' for Active; 'I' for Inactive)
    1  A    between atoms: C_2  and  C_3
    2  A    between atoms: C_5  and  C_6
    3  A    between atoms: C_6  and  N_7
    4  A    between atoms: C_8  and  C_10
    5  A    between atoms: C_10  and  C_11
    6  A    between atoms: C_11  and  C_12
    7  A    between atoms: C_12  and  C_13
    8  A    between atoms: C_13  and  C_14
    9  A    between atoms: C_14  and  C_15
   10  A    between atoms: C_15  and  C_16
   11  A    between atoms: C_16  and  C_17
   12  A    between atoms: C_19  and  O_20
   13  A    between atoms: O_20  and  C_21
   14  A    between atoms: C_22  and  O_23
                            x       y       z     vdW  Elec       q    Type
                         _______ _______ _______ _____ _____    ______ ____

>  <TORSDO>
F 12

>  <SCORE>
-5.980

>  <RMSD_LB>
2.205

>  <RMSD_UB>
4.108

$$$$
CHEMBL193046
 OpenBabel10162523413D

 25 25  0  0  0  0  0  0  0  0999 V2000
  143.4860  138.2430  153.5580 C   0  0  0  0  0  2  0  0  0  0  0  0
  144.7270  139.2850  150.0820 C   0  0  0  0  0  0  0  0  0  0  0  0
  144.7180  138.7830  151.3940 C   0  0  0  0  0  3  0  0  0  0  0  0
  143.5470  138.8100  152.1630 C   0  0  0  0  0  0  0  0  0  0  0  0
  142.3780  139.3630  151.6070 C   0  0  0  0  0  3  0  0  0  0  0  0
  142.3700  139.8650  150.3050 C   0  0  0  0  0  0  0  0  0  0  0  0
  143.5500  139.8210  149.5500 C   0  0  0  0  0  0  0  0  0  0  0  0
  146.9600  139.1930  148.6840 C   0  0  0  0  0  3  0  0  0  0  0  0
  145.9410  139.2250  149.3260 C   0  0  0  0  0  0  0  0  0  0  0  0
  141.2820  140.4080  149.6670 O   0  0  0  0  0  0  0  0  0  0  0  0
  140.0050  139.9290  150.0780 C   0  0  0  0  0  1  0  0  0  0  0  0
  143.5330  140.3130  148.2680 O   0  0  0  0  0  0  0  0  0  0  0  0
  144.2550  140.1490  147.6930 H   0  0  0  0  0  0  0  0  0  0  0  0
  144.5700  138.7100  154.3900 N   0  0  0  0  0  0  0  0  0  0  0  0
  145.6930  137.9310  154.5690 C   0  0  0  0  0  0  0  0  0  0  0  0
  145.7900  136.7850  154.1440 O   0  0  0  0  0  0  0  0  0  0  0  0
  144.5060  139.5870  154.8310 H   0  0  0  0  0  0  0  0  0  0  0  0
  146.7770  138.6040  155.3890 C   0  0  0  0  0  2  0  0  0  0  0  0
  147.4270  139.7390  154.6040 C   0  0  0  0  0  2  0  0  0  0  0  0
  148.4460  139.2230  153.5930 C   0  0  0  0  0  2  0  0  0  0  0  0
  148.2000  139.8600  152.2270 C   0  0  0  0  0  2  0  0  0  0  0  0
  147.5670  141.2420  152.3640 C   0  0  0  0  0  2  0  0  0  0  0  0
  147.9650  142.1360  151.1920 C   0  0  0  0  0  2  0  0  0  0  0  0
  146.7360  142.6050  150.4190 C   0  0  0  0  0  2  0  0  0  0  0  0
  145.4930  142.5690  151.2920 C   0  0  0  0  0  1  0  0  0  0  0  0
  1 14  1  0  0  0  0
  2  3  1  0  0  0  0
  3  4  2  0  0  0  0
  4  1  1  0  0  0  0
  5  4  1  0  0  0  0
  6  5  2  0  0  0  0
  7  2  2  0  0  0  0
  7  6  1  0  0  0  0
  8  9  3  0  0  0  0
  9  2  1  0  0  0  0
 10 11  1  0  0  0  0
 10  6  1  0  0  0  0
 12  7  1  0  0  0  0
 13 12  1  0  0  0  0
 14 15  1  0  0  0  0
 14 17  1  0  0  0  0
 15 18  1  0  0  0  0
 16 15  2  0  0  0  0
 19 18  1  0  0  0  0
 20 19  1  0  0  0  0
 21 22  1  0  0  0  0
 21 20  1  0  0  0  0
 23 22  1  0  0  0  0
 24 23  1  0  0  0  0
 24 25  1  0  0  0  0
M  END
>  <MODEL>
4

>  <REMARK>
 VINA RESULT:    -5.965      2.495      3.481
 INTER + INTRA:         -11.674
 INTER:                  -9.279
 INTRA:                  -2.395
 UNBOUND:                -1.699
  Name = CHEMBL193046
  14 active torsions:
  status: ('A' for Active; 'I' for Inactive)
    1  A    between atoms: C_2  and  C_3
    2  A    between atoms: C_5  and  C_6
    3  A    between atoms: C_6  and  N_7
    4  A    between atoms: C_8  and  C_10
    5  A    between atoms: C_10  and  C_11
    6  A    between atoms: C_11  and  C_12
    7  A    between atoms: C_12  and  C_13
    8  A    between atoms: C_13  and  C_14
    9  A    between atoms: C_14  and  C_15
   10  A    between atoms: C_15  and  C_16
   11  A    between atoms: C_16  and  C_17
   12  A    between atoms: C_19  and  O_20
   13  A    between atoms: O_20  and  C_21
   14  A    between atoms: C_22  and  O_23
                            x       y       z     vdW  Elec       q    Type
                         _______ _______ _______ _____ _____    ______ ____

>  <TORSDO>
F 12

>  <SCORE>
-5.965

>  <RMSD_LB>
2.495

>  <RMSD_UB>
3.481

$$$$
CHEMBL193046
 OpenBabel10162523413D

 25 25  0  0  0  0  0  0  0  0999 V2000
  143.0860  137.5980  152.1940 C   0  0  0  0  0  2  0  0  0  0  0  0
  139.2540  137.7180  152.1140 C   0  0  0  0  0  0  0  0  0  0  0  0
  140.5880  137.5980  151.6910 C   0  0  0  0  0  3  0  0  0  0  0  0
  141.6430  137.7600  152.5990 C   0  0  0  0  0  0  0  0  0  0  0  0
  141.3490  138.0620  153.9420 C   0  0  0  0  0  3  0  0  0  0  0  0
  140.0290  138.1830  154.3780 C   0  0  0  0  0  0  0  0  0  0  0  0
  138.9880  138.0090  153.4560 C   0  0  0  0  0  0  0  0  0  0  0  0
  137.3270  137.3880  150.3440 C   0  0  0  0  0  3  0  0  0  0  0  0
  138.2050  137.5300  151.1580 C   0  0  0  0  0  0  0  0  0  0  0  0
  139.6360  138.4570  155.6640 O   0  0  0  0  0  0  0  0  0  0  0  0
  140.0330  137.5180  156.6590 C   0  0  0  0  0  1  0  0  0  0  0  0
  137.6910  138.1250  153.8930 O   0  0  0  0  0  0  0  0  0  0  0  0
  137.3420  137.5000  154.4980 H   0  0  0  0  0  0  0  0  0  0  0  0
  143.9730  138.4280  152.9750 N   0  0  0  0  0  0  0  0  0  0  0  0
  144.9020  137.8540  153.8160 C   0  0  0  0  0  0  0  0  0  0  0  0
  144.9540  136.6480  154.0350 O   0  0  0  0  0  0  0  0  0  0  0  0
  143.9130  139.4080  152.9070 H   0  0  0  0  0  0  0  0  0  0  0  0
  145.8190  138.8570  154.4890 C   0  0  0  0  0  2  0  0  0  0  0  0
  145.5180  140.2730  154.0110 C   0  0  0  0  0  2  0  0  0  0  0  0
  146.7780  141.1320  153.9420 C   0  0  0  0  0  2  0  0  0  0  0  0
  146.5760  142.2830  152.9580 C   0  0  0  0  0  2  0  0  0  0  0  0
  145.4420  141.9870  151.9810 C   0  0  0  0  0  2  0  0  0  0  0  0
  145.9940  141.6870  150.5900 C   0  0  0  0  0  2  0  0  0  0  0  0
  145.6220  140.2760  150.1450 C   0  0  0  0  0  2  0  0  0  0  0  0
  146.6700  139.2680  150.5860 C   0  0  0  0  0  1  0  0  0  0  0  0
  1  4  1  0  0  0  0
  1 14  1  0  0  0  0
  2  7  1  0  0  0  0
  3  2  2  0  0  0  0
  3  4  1  0  0  0  0
  4  5  2  0  0  0  0
  5  6  1  0  0  0  0
  6 10  1  0  0  0  0
  7 12  1  0  0  0  0
  7  6  2  0  0  0  0
  8  9  3  0  0  0  0
  9  2  1  0  0  0  0
 10 11  1  0  0  0  0
 12 13  1  0  0  0  0
 14 15  1  0  0  0  0
 15 16  2  0  0  0  0
 15 18  1  0  0  0  0
 17 14  1  0  0  0  0
 19 18  1  0  0  0  0
 20 19  1  0  0  0  0
 21 20  1  0  0  0  0
 22 21  1  0  0  0  0
 23 22  1  0  0  0  0
 24 25  1  0  0  0  0
 24 23  1  0  0  0  0
M  END
>  <MODEL>
5

>  <REMARK>
 VINA RESULT:    -5.929      1.884      2.667
 INTER + INTRA:         -11.614
 INTER:                 -10.166
 INTRA:                  -1.448
 UNBOUND:                -1.699
  Name = CHEMBL193046
  14 active torsions:
  status: ('A' for Active; 'I' for Inactive)
    1  A    between atoms: C_2  and  C_3
    2  A    between atoms: C_5  and  C_6
    3  A    between atoms: C_6  and  N_7
    4  A    between atoms: C_8  and  C_10
    5  A    between atoms: C_10  and  C_11
    6  A    between atoms: C_11  and  C_12
    7  A    between atoms: C_12  and  C_13
    8  A    between atoms: C_13  and  C_14
    9  A    between atoms: C_14  and  C_15
   10  A    between atoms: C_15  and  C_16
   11  A    between atoms: C_16  and  C_17
   12  A    between atoms: C_19  and  O_20
   13  A    between atoms: O_20  and  C_21
   14  A    between atoms: C_22  and  O_23
                            x       y       z     vdW  Elec       q    Type
                         _______ _______ _______ _____ _____    ______ ____

>  <TORSDO>
F 12

>  <SCORE>
-5.929

>  <RMSD_LB>
1.884

>  <RMSD_UB>
2.667

$$$$
CHEMBL193046
 OpenBabel10162523413D

 25 25  0  0  0  0  0  0  0  0999 V2000
  137.6210  137.4950  155.8320 C   0  0  0  0  0  2  0  0  0  0  0  0
  135.7880  135.1700  153.3950 C   0  0  0  0  0  0  0  0  0  0  0  0
  136.6740  136.1400  153.8940 C   0  0  0  0  0  3  0  0  0  0  0  0
  136.6600  136.4900  155.2500 C   0  0  0  0  0  0  0  0  0  0  0  0
  135.7350  135.8660  156.1080 C   0  0  0  0  0  3  0  0  0  0  0  0
  134.8500  134.8990  155.6280 C   0  0  0  0  0  0  0  0  0  0  0  0
  134.8850  134.5570  154.2700 C   0  0  0  0  0  0  0  0  0  0  0  0
  135.8900  134.5630  150.8310 C   0  0  0  0  0  3  0  0  0  0  0  0
  135.8450  134.8300  152.0050 C   0  0  0  0  0  0  0  0  0  0  0  0
  133.9240  134.2230  156.3830 O   0  0  0  0  0  0  0  0  0  0  0  0
  133.8690  134.5590  157.7660 C   0  0  0  0  0  1  0  0  0  0  0  0
  134.0140  133.6020  153.8060 O   0  0  0  0  0  0  0  0  0  0  0  0
  133.9950  132.7530  154.2020 H   0  0  0  0  0  0  0  0  0  0  0  0
  138.9150  137.4540  155.1930 N   0  0  0  0  0  0  0  0  0  0  0  0
  139.4520  138.5950  154.6360 C   0  0  0  0  0  0  0  0  0  0  0  0
  138.8370  139.6530  154.5480 O   0  0  0  0  0  0  0  0  0  0  0  0
  139.4150  136.6070  155.1530 H   0  0  0  0  0  0  0  0  0  0  0  0
  140.8550  138.4070  154.0910 C   0  0  0  0  0  2  0  0  0  0  0  0
  140.8190  137.7420  152.7190 C   0  0  0  0  0  2  0  0  0  0  0  0
  139.8430  138.4370  151.7740 C   0  0  0  0  0  2  0  0  0  0  0  0
  138.8340  137.4290  151.2270 C   0  0  0  0  0  2  0  0  0  0  0  0
  138.2860  137.8690  149.8730 C   0  0  0  0  0  2  0  0  0  0  0  0
  138.8850  139.2110  149.4590 C   0  0  0  0  0  2  0  0  0  0  0  0
  137.8040  140.1650  148.9610 C   0  0  0  0  0  2  0  0  0  0  0  0
  137.0540  139.5730  147.7800 C   0  0  0  0  0  1  0  0  0  0  0  0
  2  3  2  0  0  0  0
  2  7  1  0  0  0  0
  3  4  1  0  0  0  0
  4  1  1  0  0  0  0
  4  5  2  0  0  0  0
  6  5  1  0  0  0  0
  6 10  1  0  0  0  0
  7  6  2  0  0  0  0
  8  9  3  0  0  0  0
  9  2  1  0  0  0  0
 10 11  1  0  0  0  0
 12 13  1  0  0  0  0
 12  7  1  0  0  0  0
 14  1  1  0  0  0  0
 15 14  1  0  0  0  0
 16 15  2  0  0  0  0
 17 14  1  0  0  0  0
 18 15  1  0  0  0  0
 19 18  1  0  0  0  0
 20 19  1  0  0  0  0
 21 20  1  0  0  0  0
 22 21  1  0  0  0  0
 23 22  1  0  0  0  0
 24 23  1  0  0  0  0
 25 24  1  0  0  0  0
M  END
>  <MODEL>
6

>  <REMARK>
 VINA RESULT:    -5.918      5.322      7.648
 INTER + INTRA:         -11.596
 INTER:                 -10.307
 INTRA:                  -1.289
 UNBOUND:                -1.699
  Name = CHEMBL193046
  14 active torsions:
  status: ('A' for Active; 'I' for Inactive)
    1  A    between atoms: C_2  and  C_3
    2  A    between atoms: C_5  and  C_6
    3  A    between atoms: C_6  and  N_7
    4  A    between atoms: C_8  and  C_10
    5  A    between atoms: C_10  and  C_11
    6  A    between atoms: C_11  and  C_12
    7  A    between atoms: C_12  and  C_13
    8  A    between atoms: C_13  and  C_14
    9  A    between atoms: C_14  and  C_15
   10  A    between atoms: C_15  and  C_16
   11  A    between atoms: C_16  and  C_17
   12  A    between atoms: C_19  and  O_20
   13  A    between atoms: O_20  and  C_21
   14  A    between atoms: C_22  and  O_23
                            x       y       z     vdW  Elec       q    Type
                         _______ _______ _______ _____ _____    ______ ____

>  <TORSDO>
F 12

>  <SCORE>
-5.918

>  <RMSD_LB>
5.322

>  <RMSD_UB>
7.648

$$$$
CHEMBL193046
 OpenBabel10162523413D

 25 25  0  0  0  0  0  0  0  0999 V2000
  133.8760  135.2840  153.8160 C   0  0  0  0  0  2  0  0  0  0  0  0
  136.1910  135.5010  150.7650 C   0  0  0  0  0  0  0  0  0  0  0  0
  135.6400  135.7430  152.0360 C   0  0  0  0  0  3  0  0  0  0  0  0
  134.4740  135.0840  152.4470 C   0  0  0  0  0  0  0  0  0  0  0  0
  133.8500  134.1840  151.5620 C   0  0  0  0  0  3  0  0  0  0  0  0
  134.3850  133.9320  150.2990 C   0  0  0  0  0  0  0  0  0  0  0  0
  135.5560  134.5950  149.9090 C   0  0  0  0  0  0  0  0  0  0  0  0
  138.4120  136.7500  150.0900 C   0  0  0  0  0  3  0  0  0  0  0  0
  137.3920  136.1840  150.3900 C   0  0  0  0  0  0  0  0  0  0  0  0
  133.8640  133.0640  149.3720 O   0  0  0  0  0  0  0  0  0  0  0  0
  132.6490  133.4650  148.7440 C   0  0  0  0  0  1  0  0  0  0  0  0
  136.0790  134.3390  148.6660 O   0  0  0  0  0  0  0  0  0  0  0  0
  136.9810  134.1010  148.5760 H   0  0  0  0  0  0  0  0  0  0  0  0
  134.8520  135.7280  154.7830 N   0  0  0  0  0  0  0  0  0  0  0  0
  135.0040  135.0540  155.9760 C   0  0  0  0  0  0  0  0  0  0  0  0
  134.2670  134.1390  156.3290 O   0  0  0  0  0  0  0  0  0  0  0  0
  135.4100  136.5150  154.5900 H   0  0  0  0  0  0  0  0  0  0  0  0
  136.1330  135.5860  156.8380 C   0  0  0  0  0  2  0  0  0  0  0  0
  137.3670  135.8830  155.9930 C   0  0  0  0  0  2  0  0  0  0  0  0
  138.0140  137.2110  156.3740 C   0  0  0  0  0  2  0  0  0  0  0  0
  137.8410  138.2230  155.2430 C   0  0  0  0  0  2  0  0  0  0  0  0
  138.2560  137.6310  153.9000 C   0  0  0  0  0  2  0  0  0  0  0  0
  139.2070  138.5730  153.1650 C   0  0  0  0  0  2  0  0  0  0  0  0
  140.6590  138.1570  153.3730 C   0  0  0  0  0  2  0  0  0  0  0  0
  141.2180  137.4810  152.1330 C   0  0  0  0  0  1  0  0  0  0  0  0
  1 14  1  0  0  0  0
  2  3  1  0  0  0  0
  3  4  2  0  0  0  0
  4  1  1  0  0  0  0
  5  4  1  0  0  0  0
  6  5  2  0  0  0  0
  7  6  1  0  0  0  0
  7  2  2  0  0  0  0
  8  9  3  0  0  0  0
  9  2  1  0  0  0  0
 10  6  1  0  0  0  0
 11 10  1  0  0  0  0
 12  7  1  0  0  0  0
 13 12  1  0  0  0  0
 14 15  1  0  0  0  0
 15 16  2  0  0  0  0
 15 18  1  0  0  0  0
 17 14  1  0  0  0  0
 19 20  1  0  0  0  0
 19 18  1  0  0  0  0
 21 20  1  0  0  0  0
 22 21  1  0  0  0  0
 23 24  1  0  0  0  0
 23 22  1  0  0  0  0
 25 24  1  0  0  0  0
M  END
>  <MODEL>
7

>  <REMARK>
 VINA RESULT:    -5.905      6.256      9.515
 INTER + INTRA:         -11.574
 INTER:                  -9.935
 INTRA:                  -1.638
 UNBOUND:                -1.699
  Name = CHEMBL193046
  14 active torsions:
  status: ('A' for Active; 'I' for Inactive)
    1  A    between atoms: C_2  and  C_3
    2  A    between atoms: C_5  and  C_6
    3  A    between atoms: C_6  and  N_7
    4  A    between atoms: C_8  and  C_10
    5  A    between atoms: C_10  and  C_11
    6  A    between atoms: C_11  and  C_12
    7  A    between atoms: C_12  and  C_13
    8  A    between atoms: C_13  and  C_14
    9  A    between atoms: C_14  and  C_15
   10  A    between atoms: C_15  and  C_16
   11  A    between atoms: C_16  and  C_17
   12  A    between atoms: C_19  and  O_20
   13  A    between atoms: O_20  and  C_21
   14  A    between atoms: C_22  and  O_23
                            x       y       z     vdW  Elec       q    Type
                         _______ _______ _______ _____ _____    ______ ____

>  <TORSDO>
F 12

>  <SCORE>
-5.905

>  <RMSD_LB>
6.256

>  <RMSD_UB>
9.515

$$$$
CHEMBL193046
 OpenBabel10162523413D

 25 25  0  0  0  0  0  0  0  0999 V2000
  139.7910  137.5200  150.3930 C   0  0  0  0  0  2  0  0  0  0  0  0
  142.2780  137.6050  153.3120 C   0  0  0  0  0  0  0  0  0  0  0  0
  141.7440  137.4140  152.0260 C   0  0  0  0  0  3  0  0  0  0  0  0
  140.3920  137.6730  151.7670 C   0  0  0  0  0  0  0  0  0  0  0  0
  139.5680  138.1150  152.8180 C   0  0  0  0  0  3  0  0  0  0  0  0
  140.0820  138.3120  154.1000 C   0  0  0  0  0  0  0  0  0  0  0  0
  141.4390  138.0550  154.3370 C   0  0  0  0  0  0  0  0  0  0  0  0
  144.8330  137.1070  153.7260 C   0  0  0  0  0  3  0  0  0  0  0  0
  143.6680  137.3440  153.5310 C   0  0  0  0  0  0  0  0  0  0  0  0
  139.3680  138.7540  155.1860 O   0  0  0  0  0  0  0  0  0  0  0  0
  137.9770  138.4490  155.1940 C   0  0  0  0  0  1  0  0  0  0  0  0
  141.9400  138.2550  155.6000 O   0  0  0  0  0  0  0  0  0  0  0  0
  141.6430  137.7220  156.3120 H   0  0  0  0  0  0  0  0  0  0  0  0
  138.5490  136.7840  150.4140 N   0  0  0  0  0  0  0  0  0  0  0  0
  137.4010  137.3440  149.8970 C   0  0  0  0  0  0  0  0  0  0  0  0
  137.3370  138.5050  149.5080 O   0  0  0  0  0  0  0  0  0  0  0  0
  138.5230  135.8790  150.8000 H   0  0  0  0  0  0  0  0  0  0  0  0
  136.2070  136.4080  149.9080 C   0  0  0  0  0  2  0  0  0  0  0  0
  136.4750  135.1970  150.7950 C   0  0  0  0  0  2  0  0  0  0  0  0
  135.5910  135.1960  152.0400 C   0  0  0  0  0  2  0  0  0  0  0  0
  134.5430  134.0890  151.9380 C   0  0  0  0  0  2  0  0  0  0  0  0
  133.2170  134.6250  151.4070 C   0  0  0  0  0  2  0  0  0  0  0  0
  132.6680  133.7160  150.3100 C   0  0  0  0  0  2  0  0  0  0  0  0
  133.4990  133.8300  149.0360 C   0  0  0  0  0  2  0  0  0  0  0  0
  134.0430  132.4760  148.6140 C   0  0  0  0  0  1  0  0  0  0  0  0
  1 14  1  0  0  0  0
  1  4  1  0  0  0  0
  2  9  1  0  0  0  0
  2  7  1  0  0  0  0
  3  2  2  0  0  0  0
  4  3  1  0  0  0  0
  4  5  2  0  0  0  0
  5  6  1  0  0  0  0
  6  7  2  0  0  0  0
  6 10  1  0  0  0  0
  7 12  1  0  0  0  0
  9  8  3  0  0  0  0
 10 11  1  0  0  0  0
 12 13  1  0  0  0  0
 14 17  1  0  0  0  0
 15 18  1  0  0  0  0
 15 14  1  0  0  0  0
 16 15  2  0  0  0  0
 18 19  1  0  0  0  0
 19 20  1  0  0  0  0
 21 20  1  0  0  0  0
 22 21  1  0  0  0  0
 23 22  1  0  0  0  0
 24 23  1  0  0  0  0
 25 24  1  0  0  0  0
M  END
>  <MODEL>
8

>  <REMARK>
 VINA RESULT:    -5.894      5.071      9.734
 INTER + INTRA:         -11.556
 INTER:                 -10.324
 INTRA:                  -1.231
 UNBOUND:                -1.699
  Name = CHEMBL193046
  14 active torsions:
  status: ('A' for Active; 'I' for Inactive)
    1  A    between atoms: C_2  and  C_3
    2  A    between atoms: C_5  and  C_6
    3  A    between atoms: C_6  and  N_7
    4  A    between atoms: C_8  and  C_10
    5  A    between atoms: C_10  and  C_11
    6  A    between atoms: C_11  and  C_12
    7  A    between atoms: C_12  and  C_13
    8  A    between atoms: C_13  and  C_14
    9  A    between atoms: C_14  and  C_15
   10  A    between atoms: C_15  and  C_16
   11  A    between atoms: C_16  and  C_17
   12  A    between atoms: C_19  and  O_20
   13  A    between atoms: O_20  and  C_21
   14  A    between atoms: C_22  and  O_23
                            x       y       z     vdW  Elec       q    Type
                         _______ _______ _______ _____ _____    ______ ____

>  <TORSDO>
F 12

>  <SCORE>
-5.894

>  <RMSD_LB>
5.071

>  <RMSD_UB>
9.734

$$$$
CHEMBL193046
 OpenBabel10162523413D

 25 25  0  0  0  0  0  0  0  0999 V2000
  135.3410  135.1400  154.4830 C   0  0  0  0  0  2  0  0  0  0  0  0
  138.0640  137.6670  153.5290 C   0  0  0  0  0  0  0  0  0  0  0  0
  137.1000  136.6500  153.4250 C   0  0  0  0  0  3  0  0  0  0  0  0
  136.4110  136.1990  154.5590 C   0  0  0  0  0  0  0  0  0  0  0  0
  136.7090  136.7690  155.8110 C   0  0  0  0  0  3  0  0  0  0  0  0
  137.6620  137.7810  155.9300 C   0  0  0  0  0  0  0  0  0  0  0  0
  138.3340  138.2240  154.7830 C   0  0  0  0  0  0  0  0  0  0  0  0
  139.2840  138.4730  151.3350 C   0  0  0  0  0  3  0  0  0  0  0  0
  138.7340  138.1090  152.3440 C   0  0  0  0  0  0  0  0  0  0  0  0
  138.0120  138.4120  157.0980 O   0  0  0  0  0  0  0  0  0  0  0  0
  137.8200  137.6690  158.2990 C   0  0  0  0  0  1  0  0  0  0  0  0
  139.2680  139.2230  154.9080 O   0  0  0  0  0  0  0  0  0  0  0  0
  139.5630  139.6870  154.1490 H   0  0  0  0  0  0  0  0  0  0  0  0
  135.3900  134.3960  153.2460 N   0  0  0  0  0  0  0  0  0  0  0  0
  134.3770  134.5200  152.3200 C   0  0  0  0  0  0  0  0  0  0  0  0
  133.3500  135.1570  152.5300 O   0  0  0  0  0  0  0  0  0  0  0  0
  136.1490  133.7970  153.0650 H   0  0  0  0  0  0  0  0  0  0  0  0
  134.6250  133.7500  151.0370 C   0  0  0  0  0  2  0  0  0  0  0  0
  133.3080  133.3380  150.3880 C   0  0  0  0  0  2  0  0  0  0  0  0
  132.8200  134.3740  149.3800 C   0  0  0  0  0  2  0  0  0  0  0  0
  133.9940  134.8970  148.5550 C   0  0  0  0  0  2  0  0  0  0  0  0
  134.1020  136.4170  148.6440 C   0  0  0  0  0  2  0  0  0  0  0  0
  135.5560  136.8620  148.5130 C   0  0  0  0  0  2  0  0  0  0  0  0
  136.3010  136.6980  149.8340 C   0  0  0  0  0  2  0  0  0  0  0  0
  137.4550  135.7190  149.6940 C   0  0  0  0  0  1  0  0  0  0  0  0
  1  4  1  0  0  0  0
  2  7  1  0  0  0  0
  3  2  2  0  0  0  0
  3  4  1  0  0  0  0
  4  5  2  0  0  0  0
  5  6  1  0  0  0  0
  6 10  1  0  0  0  0
  7 12  1  0  0  0  0
  7  6  2  0  0  0  0
  8  9  3  0  0  0  0
  9  2  1  0  0  0  0
 10 11  1  0  0  0  0
 13 12  1  0  0  0  0
 14  1  1  0  0  0  0
 15 16  2  0  0  0  0
 15 14  1  0  0  0  0
 17 14  1  0  0  0  0
 18 15  1  0  0  0  0
 19 18  1  0  0  0  0
 20 19  1  0  0  0  0
 21 22  1  0  0  0  0
 21 20  1  0  0  0  0
 23 22  1  0  0  0  0
 23 24  1  0  0  0  0
 25 24  1  0  0  0  0
M  END
>  <MODEL>
9

>  <REMARK>
 VINA RESULT:    -5.801      6.549     10.351
 INTER + INTRA:         -11.400
 INTER:                  -9.701
 INTRA:                  -1.699
 UNBOUND:                -1.699
  Name = CHEMBL193046
  14 active torsions:
  status: ('A' for Active; 'I' for Inactive)
    1  A    between atoms: C_2  and  C_3
    2  A    between atoms: C_5  and  C_6
    3  A    between atoms: C_6  and  N_7
    4  A    between atoms: C_8  and  C_10
    5  A    between atoms: C_10  and  C_11
    6  A    between atoms: C_11  and  C_12
    7  A    between atoms: C_12  and  C_13
    8  A    between atoms: C_13  and  C_14
    9  A    between atoms: C_14  and  C_15
   10  A    between atoms: C_15  and  C_16
   11  A    between atoms: C_16  and  C_17
   12  A    between atoms: C_19  and  O_20
   13  A    between atoms: O_20  and  C_21
   14  A    between atoms: C_22  and  O_23
                            x       y       z     vdW  Elec       q    Type
                         _______ _______ _______ _____ _____    ______ ____

>  <TORSDO>
F 12

>  <SCORE>
-5.801

>  <RMSD_LB>
6.549

>  <RMSD_UB>
10.351

$$$$
