CHEMBL173113
 OpenBabel10162523483D

 34 34  0  0  1  0  0  0  0  0999 V2000
  142.4040  137.4890  152.2800 C   0  0  0  0  0  0  0  0  0  0  0  0
  142.8600  137.8600  153.5470 C   0  0  0  0  0  3  0  0  0  0  0  0
  141.9650  138.3260  154.5140 C   0  0  0  0  0  3  0  0  0  0  0  0
  140.5950  138.4300  154.2430 C   0  0  0  0  0  0  0  0  0  0  0  0
  140.1300  138.0570  152.9700 C   0  0  0  0  0  0  0  0  0  0  0  0
  141.0330  137.5680  152.0130 C   0  0  0  0  0  3  0  0  0  0  0  0
  138.8320  138.0630  152.5250 O   0  0  0  0  0  0  0  0  0  0  0  0
  138.6370  138.1240  151.1180 C   0  0  0  0  0  1  0  0  0  0  0  0
  143.3610  137.0110  151.2250 C   0  0  0  0  0  2  0  0  0  0  0  0
  145.7820  137.2010  151.4150 C   0  0  0  0  0  0  0  0  0  0  0  0
  145.9020  136.0020  151.6530 O   0  0  0  0  0  0  0  0  0  0  0  0
  144.5670  137.7990  151.1940 N   0  0  0  0  0  0  0  0  0  0  0  0
  144.5190  138.7660  151.0150 H   0  0  0  0  0  0  0  0  0  0  0  0
  146.9620  138.1560  151.3620 C   0  0  0  0  0  2  0  0  0  0  0  0
  147.6600  138.2300  152.7190 C   0  0  0  0  0  2  0  0  0  0  0  0
  146.6730  138.4380  153.8690 C   0  0  0  0  0  2  0  0  0  0  0  0
  147.1480  139.5680  154.7830 C   0  0  0  0  0  2  0  0  0  0  0  0
  148.1420  140.4920  154.0820 C   0  0  0  0  0  2  0  0  0  0  0  0
  147.5290  141.8750  153.8510 C   0  0  0  0  0  2  0  0  0  0  0  0
  145.7630  142.1150  152.0750 C   0  0  0  0  0  1  0  0  0  0  0  0
  147.2540  142.1270  152.3700 C   0  0  0  0  0  2  0  0  0  0  0  0
  139.6750  138.8660  155.1570 O   0  0  0  0  0  0  0  0  0  0  0  0
  139.1060  137.9090  156.0600 C   0  0  0  0  0  2  0  0  0  0  0  0
  137.5750  137.9740  155.9340 C   0  0  1  0  0  3  0  0  0  0  0  0
  137.2140  139.0930  155.1120 O   0  0  0  0  0  0  0  0  0  0  0  0
  136.3100  138.9730  154.7810 H   0  0  0  0  0  0  0  0  0  0  0  0
  136.9790  136.6930  155.3150 C   0  0  0  0  0  2  0  0  0  0  0  0
  135.6040  136.4540  155.7650 N   0  0  0  0  0  4  0  0  0  0  0  0
  134.9920  137.1180  155.2900 H   0  0  0  0  0  0  0  0  0  0  0  0
  135.6000  136.5730  156.7780 H   0  0  0  0  0  0  0  0  0  0  0  0
  135.1140  135.0930  155.4910 C   0  0  1  0  0  3  0  0  0  0  0  0
  134.3490  134.5030  156.6820 C   0  0  0  0  0  1  0  0  0  0  0  0
  134.2160  135.1840  154.2380 C   0  0  0  0  0  2  0  0  0  0  0  0
  134.3660  134.0040  153.2870 C   0  0  0  0  0  1  0  0  0  0  0  0
  1  2  1  0  0  0  0
  2  3  2  0  0  0  0
  4  3  1  0  0  0  0
  4 22  1  0  0  0  0
  5  4  2  0  0  0  0
  6  1  2  0  0  0  0
  6  5  1  0  0  0  0
  7  5  1  0  0  0  0
  8  7  1  0  0  0  0
  9  1  1  0  0  0  0
 10 11  2  0  0  0  0
 12  9  1  0  0  0  0
 12 10  1  0  0  0  0
 13 12  1  0  0  0  0
 14 10  1  0  0  0  0
 14 15  1  0  0  0  0
 15 16  1  0  0  0  0
 16 17  1  0  0  0  0
 18 17  1  0  0  0  0
 19 18  1  0  0  0  0
 20 21  1  0  0  0  0
 21 19  1  0  0  0  0
 22 23  1  0  0  0  0
 24 27  1  6  0  0  0
 24 23  1  0  0  0  0
 25 24  1  0  0  0  0
 26 25  1  0  0  0  0
 27 28  1  0  0  0  0
 28 30  1  0  0  0  0
 29 28  1  0  0  0  0
 31 28  1  0  0  0  0
 31 32  1  1  0  0  0
 33 31  1  0  0  0  0
 34 33  1  0  0  0  0
M  END
>  <MODEL>
1

>  <REMARK>
 VINA RESULT:    -6.511      0.000      0.000
 INTER + INTRA:         -15.225
 INTER:                 -13.268
 INTRA:                  -1.957
 UNBOUND:                -2.054
  Name = CHEMBL173113
  22 active torsions:
  status: ('A' for Active; 'I' for Inactive)
    1  A    between atoms: C_1  and  C_2
    2  A    between atoms: C_2  and  C_3
    3  A    between atoms: C_3  and  C_4
    4  A    between atoms: C_4  and  C_5
    5  A    between atoms: C_5  and  C_6
    6  A    between atoms: C_6  and  C_7
    7  A    between atoms: C_7  and  C_8
    8  A    between atoms: C_8  and  C_9
    9  A    between atoms: N_11  and  C_12
   10  A    between atoms: C_12  and  C_13
   11  A    between atoms: C_16  and  O_17
   12  A    between atoms: O_17  and  C_18
   13  A    between atoms: C_18  and  C_19
   14  A    between atoms: C_19  and  O_20
   15  A    between atoms: C_19  and  C_21
   16  A    between atoms: C_21  and  N_22
   17  A    between atoms: N_22  and  C_23
   18  A    between atoms: C_23  and  C_24
   19  A    between atoms: C_23  and  C_25
   20  A    between atoms: C_25  and  C_26
   21  A    between atoms: C_27  and  O_28
   22  A    between atoms: O_28  and  C_29
                            x       y       z     vdW  Elec       q    Type
                         _______ _______ _______ _____ _____    ______ ____

>  <TORSDO>
F 18

>  <SCORE>
-6.511

>  <RMSD_LB>
0.000

>  <RMSD_UB>
0.000

$$$$
CHEMBL173113
 OpenBabel10162523483D

 34 34  0  0  1  0  0  0  0  0999 V2000
  139.3050  137.8080  151.5700 C   0  0  0  0  0  0  0  0  0  0  0  0
  140.5720  137.5080  151.0650 C   0  0  0  0  0  3  0  0  0  0  0  0
  141.6980  137.5710  151.8920 C   0  0  0  0  0  3  0  0  0  0  0  0
  141.5860  137.9300  153.2420 C   0  0  0  0  0  0  0  0  0  0  0  0
  140.3130  138.2310  153.7550 C   0  0  0  0  0  0  0  0  0  0  0  0
  139.1850  138.1420  152.9230 C   0  0  0  0  0  3  0  0  0  0  0  0
  139.9980  138.5750  155.0460 O   0  0  0  0  0  0  0  0  0  0  0  0
  138.7350  138.1420  155.5350 C   0  0  0  0  0  1  0  0  0  0  0  0
  138.0930  137.7680  150.6840 C   0  0  0  0  0  2  0  0  0  0  0  0
  137.2990  135.5230  150.1700 C   0  0  0  0  0  0  0  0  0  0  0  0
  138.0340  135.4400  149.1880 O   0  0  0  0  0  0  0  0  0  0  0  0
  137.2500  136.6350  150.9730 N   0  0  0  0  0  0  0  0  0  0  0  0
  136.6400  136.6590  151.7440 H   0  0  0  0  0  0  0  0  0  0  0  0
  136.3500  134.4140  150.5880 C   0  0  0  0  0  2  0  0  0  0  0  0
  135.8980  134.6060  152.0350 C   0  0  0  0  0  2  0  0  0  0  0  0
  134.4750  134.0980  152.2710 C   0  0  0  0  0  2  0  0  0  0  0  0
  133.7490  133.9030  150.9390 C   0  0  0  0  0  2  0  0  0  0  0  0
  132.4580  134.7160  150.8670 C   0  0  0  0  0  2  0  0  0  0  0  0
  132.7370  136.1370  150.3720 C   0  0  0  0  0  2  0  0  0  0  0  0
  132.7230  137.0850  148.0400 C   0  0  0  0  0  1  0  0  0  0  0  0
  133.4150  136.1320  149.0030 C   0  0  0  0  0  2  0  0  0  0  0  0
  142.6520  137.9920  154.0970 O   0  0  0  0  0  0  0  0  0  0  0  0
  143.3160  139.2500  154.2670 C   0  0  0  0  0  2  0  0  0  0  0  0
  144.8210  138.9860  154.4380 C   0  0  1  0  0  3  0  0  0  0  0  0
  145.0670  137.5750  154.3520 O   0  0  0  0  0  0  0  0  0  0  0  0
  144.4570  137.1030  154.9410 H   0  0  0  0  0  0  0  0  0  0  0  0
  145.6710  139.7030  153.3690 C   0  0  0  0  0  2  0  0  0  0  0  0
  145.1990  141.0670  153.1160 N   0  0  0  0  0  4  0  0  0  0  0  0
  144.5550  141.3280  153.8640 H   0  0  0  0  0  0  0  0  0  0  0  0
  144.7520  141.0600  152.1990 H   0  0  0  0  0  0  0  0  0  0  0  0
  146.2750  142.0710  153.0600 C   0  0  1  0  0  3  0  0  0  0  0  0
  147.3500  141.8260  154.1240 C   0  0  0  0  0  1  0  0  0  0  0  0
  146.8700  142.0100  151.6370 C   0  0  0  0  0  2  0  0  0  0  0  0
  145.9720  142.6200  150.5680 C   0  0  0  0  0  1  0  0  0  0  0  0
  1  6  1  0  0  0  0
  2  1  2  0  0  0  0
  2  3  1  0  0  0  0
  3  4  2  0  0  0  0
  4  5  1  0  0  0  0
  4 22  1  0  0  0  0
  5  7  1  0  0  0  0
  6  5  2  0  0  0  0
  7  8  1  0  0  0  0
  9 12  1  0  0  0  0
  9  1  1  0  0  0  0
 10 14  1  0  0  0  0
 10 12  1  0  0  0  0
 11 10  2  0  0  0  0
 12 13  1  0  0  0  0
 14 15  1  0  0  0  0
 15 16  1  0  0  0  0
 17 16  1  0  0  0  0
 18 17  1  0  0  0  0
 19 18  1  0  0  0  0
 20 21  1  0  0  0  0
 21 19  1  0  0  0  0
 22 23  1  0  0  0  0
 23 24  1  0  0  0  0
 24 27  1  6  0  0  0
 25 24  1  0  0  0  0
 25 26  1  0  0  0  0
 28 27  1  0  0  0  0
 28 29  1  0  0  0  0
 30 28  1  0  0  0  0
 31 28  1  0  0  0  0
 31 32  1  1  0  0  0
 33 31  1  0  0  0  0
 34 33  1  0  0  0  0
M  END
>  <MODEL>
2

>  <REMARK>
 VINA RESULT:    -6.479      2.723     10.284
 INTER + INTRA:         -15.161
 INTER:                 -13.611
 INTRA:                  -1.550
 UNBOUND:                -2.054
  Name = CHEMBL173113
  22 active torsions:
  status: ('A' for Active; 'I' for Inactive)
    1  A    between atoms: C_1  and  C_2
    2  A    between atoms: C_2  and  C_3
    3  A    between atoms: C_3  and  C_4
    4  A    between atoms: C_4  and  C_5
    5  A    between atoms: C_5  and  C_6
    6  A    between atoms: C_6  and  C_7
    7  A    between atoms: C_7  and  C_8
    8  A    between atoms: C_8  and  C_9
    9  A    between atoms: N_11  and  C_12
   10  A    between atoms: C_12  and  C_13
   11  A    between atoms: C_16  and  O_17
   12  A    between atoms: O_17  and  C_18
   13  A    between atoms: C_18  and  C_19
   14  A    between atoms: C_19  and  O_20
   15  A    between atoms: C_19  and  C_21
   16  A    between atoms: C_21  and  N_22
   17  A    between atoms: N_22  and  C_23
   18  A    between atoms: C_23  and  C_24
   19  A    between atoms: C_23  and  C_25
   20  A    between atoms: C_25  and  C_26
   21  A    between atoms: C_27  and  O_28
   22  A    between atoms: O_28  and  C_29
                            x       y       z     vdW  Elec       q    Type
                         _______ _______ _______ _____ _____    ______ ____

>  <TORSDO>
F 18

>  <SCORE>
-6.479

>  <RMSD_LB>
2.723

>  <RMSD_UB>
10.284

$$$$
CHEMBL173113
 OpenBabel10162523483D

 34 34  0  0  1  0  0  0  0  0999 V2000
  143.1450  137.7410  152.7720 C   0  0  0  0  0  0  0  0  0  0  0  0
  142.0370  137.4380  151.9780 C   0  0  0  0  0  3  0  0  0  0  0  0
  140.7560  137.8450  152.3650 C   0  0  0  0  0  3  0  0  0  0  0  0
  140.5520  138.5650  153.5490 C   0  0  0  0  0  0  0  0  0  0  0  0
  141.6640  138.8730  154.3510 C   0  0  0  0  0  0  0  0  0  0  0  0
  142.9490  138.4810  153.9430 C   0  0  0  0  0  3  0  0  0  0  0  0
  141.6710  139.5860  155.5240 O   0  0  0  0  0  0  0  0  0  0  0  0
  142.9400  139.9940  156.0180 C   0  0  0  0  0  1  0  0  0  0  0  0
  144.5220  137.2860  152.3790 C   0  0  0  0  0  2  0  0  0  0  0  0
  146.4640  137.7220  153.7850 C   0  0  0  0  0  0  0  0  0  0  0  0
  146.4590  136.5740  154.2230 O   0  0  0  0  0  0  0  0  0  0  0  0
  145.5450  138.1750  152.8720 N   0  0  0  0  0  0  0  0  0  0  0  0
  145.5830  139.1060  152.5550 H   0  0  0  0  0  0  0  0  0  0  0  0
  147.4720  138.7700  154.2220 C   0  0  0  0  0  2  0  0  0  0  0  0
  148.1610  139.3960  153.0110 C   0  0  0  0  0  2  0  0  0  0  0  0
  148.3040  140.9130  153.1440 C   0  0  0  0  0  2  0  0  0  0  0  0
  147.0240  141.5220  153.7180 C   0  0  0  0  0  2  0  0  0  0  0  0
  146.2930  142.3870  152.6930 C   0  0  0  0  0  2  0  0  0  0  0  0
  145.3200  141.5440  151.8650 C   0  0  0  0  0  2  0  0  0  0  0  0
  146.6600  142.7300  150.0960 C   0  0  0  0  0  1  0  0  0  0  0  0
  145.5840  141.6910  150.3680 C   0  0  0  0  0  2  0  0  0  0  0  0
  139.3230  138.9990  153.9650 O   0  0  0  0  0  0  0  0  0  0  0  0
  138.3090  138.0220  154.2290 C   0  0  0  0  0  2  0  0  0  0  0  0
  138.6500  137.3130  155.5500 C   0  0  1  0  0  3  0  0  0  0  0  0
  138.8950  138.2960  156.5670 O   0  0  0  0  0  0  0  0  0  0  0  0
  138.7100  139.1800  156.2140 H   0  0  0  0  0  0  0  0  0  0  0  0
  137.5190  136.3780  156.0270 C   0  0  0  0  0  2  0  0  0  0  0  0
  136.3040  136.5300  155.2220 N   0  0  0  0  0  4  0  0  0  0  0  0
  136.5270  137.1060  154.4100 H   0  0  0  0  0  0  0  0  0  0  0  0
  135.6020  136.9580  155.8250 H   0  0  0  0  0  0  0  0  0  0  0  0
  135.7400  135.2560  154.7450 C   0  0  1  0  0  3  0  0  0  0  0  0
  134.5080  134.8310  155.5510 C   0  0  0  0  0  1  0  0  0  0  0  0
  135.3950  135.4510  153.2520 C   0  0  0  0  0  2  0  0  0  0  0  0
  135.8500  134.3020  152.3610 C   0  0  0  0  0  1  0  0  0  0  0  0
  1  6  1  0  0  0  0
  2  3  1  0  0  0  0
  2  1  2  0  0  0  0
  3  4  2  0  0  0  0
  4 22  1  0  0  0  0
  4  5  1  0  0  0  0
  5  7  1  0  0  0  0
  6  5  2  0  0  0  0
  7  8  1  0  0  0  0
  9  1  1  0  0  0  0
  9 12  1  0  0  0  0
 10 14  1  0  0  0  0
 10 11  2  0  0  0  0
 12 10  1  0  0  0  0
 13 12  1  0  0  0  0
 15 16  1  0  0  0  0
 15 14  1  0  0  0  0
 16 17  1  0  0  0  0
 18 17  1  0  0  0  0
 19 18  1  0  0  0  0
 20 21  1  0  0  0  0
 21 19  1  0  0  0  0
 22 23  1  0  0  0  0
 24 23  1  6  0  0  0
 24 27  1  0  0  0  0
 24 25  1  0  0  0  0
 26 25  1  0  0  0  0
 28 30  1  0  0  0  0
 28 27  1  0  0  0  0
 29 28  1  0  0  0  0
 31 28  1  0  0  0  0
 31 32  1  1  0  0  0
 33 31  1  0  0  0  0
 34 33  1  0  0  0  0
M  END
>  <MODEL>
3

>  <REMARK>
 VINA RESULT:    -6.465      1.399      2.497
 INTER + INTRA:         -15.133
 INTER:                 -13.218
 INTRA:                  -1.915
 UNBOUND:                -2.054
  Name = CHEMBL173113
  22 active torsions:
  status: ('A' for Active; 'I' for Inactive)
    1  A    between atoms: C_1  and  C_2
    2  A    between atoms: C_2  and  C_3
    3  A    between atoms: C_3  and  C_4
    4  A    between atoms: C_4  and  C_5
    5  A    between atoms: C_5  and  C_6
    6  A    between atoms: C_6  and  C_7
    7  A    between atoms: C_7  and  C_8
    8  A    between atoms: C_8  and  C_9
    9  A    between atoms: N_11  and  C_12
   10  A    between atoms: C_12  and  C_13
   11  A    between atoms: C_16  and  O_17
   12  A    between atoms: O_17  and  C_18
   13  A    between atoms: C_18  and  C_19
   14  A    between atoms: C_19  and  O_20
   15  A    between atoms: C_19  and  C_21
   16  A    between atoms: C_21  and  N_22
   17  A    between atoms: N_22  and  C_23
   18  A    between atoms: C_23  and  C_24
   19  A    between atoms: C_23  and  C_25
   20  A    between atoms: C_25  and  C_26
   21  A    between atoms: C_27  and  O_28
   22  A    between atoms: O_28  and  C_29
                            x       y       z     vdW  Elec       q    Type
                         _______ _______ _______ _____ _____    ______ ____

>  <TORSDO>
F 18

>  <SCORE>
-6.465

>  <RMSD_LB>
1.399

>  <RMSD_UB>
2.497

$$$$
CHEMBL173113
 OpenBabel10162523483D

 34 34  0  0  1  0  0  0  0  0999 V2000
  137.2770  136.6810  155.4000 C   0  0  0  0  0  0  0  0  0  0  0  0
  138.0130  137.0080  156.5420 C   0  0  0  0  0  3  0  0  0  0  0  0
  139.1630  137.7960  156.4420 C   0  0  0  0  0  3  0  0  0  0  0  0
  139.6040  138.2800  155.2030 C   0  0  0  0  0  0  0  0  0  0  0  0
  138.8670  137.9550  154.0520 C   0  0  0  0  0  0  0  0  0  0  0  0
  137.7000  137.1830  154.1650 C   0  0  0  0  0  3  0  0  0  0  0  0
  139.1210  138.3520  152.7630 O   0  0  0  0  0  0  0  0  0  0  0  0
  138.2660  137.8340  151.7520 C   0  0  0  0  0  1  0  0  0  0  0  0
  136.0540  135.8140  155.4940 C   0  0  0  0  0  2  0  0  0  0  0  0
  134.3580  134.8680  154.0210 C   0  0  0  0  0  0  0  0  0  0  0  0
  133.5250  134.8450  154.9240 O   0  0  0  0  0  0  0  0  0  0  0  0
  135.6400  135.3250  154.2020 N   0  0  0  0  0  0  0  0  0  0  0  0
  136.2760  135.3170  153.4510 H   0  0  0  0  0  0  0  0  0  0  0  0
  134.0690  134.3740  152.6150 C   0  0  0  0  0  2  0  0  0  0  0  0
  135.2070  134.7450  151.6660 C   0  0  0  0  0  2  0  0  0  0  0  0
  134.8740  135.9660  150.8100 C   0  0  0  0  0  2  0  0  0  0  0  0
  133.3790  136.2790  150.8820 C   0  0  0  0  0  2  0  0  0  0  0  0
  132.7910  136.5810  149.5050 C   0  0  0  0  0  2  0  0  0  0  0  0
  133.5590  135.8360  148.4110 C   0  0  0  0  0  2  0  0  0  0  0  0
  132.8250  133.4650  148.8320 C   0  0  0  0  0  1  0  0  0  0  0  0
  132.7620  134.6470  147.8760 C   0  0  0  0  0  2  0  0  0  0  0  0
  140.7130  139.0660  155.0520 O   0  0  0  0  0  0  0  0  0  0  0  0
  141.9670  138.5780  155.5470 C   0  0  0  0  0  2  0  0  0  0  0  0
  142.9550  139.7540  155.6110 C   0  0  1  0  0  3  0  0  0  0  0  0
  143.4790  139.8630  156.9430 O   0  0  0  0  0  0  0  0  0  0  0  0
  143.0460  139.2100  157.5150 H   0  0  0  0  0  0  0  0  0  0  0  0
  144.1320  139.5900  154.6270 C   0  0  0  0  0  2  0  0  0  0  0  0
  145.0240  140.7530  154.6390 N   0  0  0  0  0  4  0  0  0  0  0  0
  145.1030  141.0870  155.6000 H   0  0  0  0  0  0  0  0  0  0  0  0
  144.6120  141.4470  154.0150 H   0  0  0  0  0  0  0  0  0  0  0  0
  146.3780  140.4720  154.1340 C   0  0  1  0  0  3  0  0  0  0  0  0
  146.3540  139.6510  152.8390 C   0  0  0  0  0  1  0  0  0  0  0  0
  147.0680  141.8370  153.9190 C   0  0  0  0  0  2  0  0  0  0  0  0
  148.5470  141.8420  154.2810 C   0  0  0  0  0  1  0  0  0  0  0  0
  1  9  1  0  0  0  0
  1  2  1  0  0  0  0
  3  2  2  0  0  0  0
  4  3  1  0  0  0  0
  5  6  1  0  0  0  0
  5  4  2  0  0  0  0
  6  1  2  0  0  0  0
  7  5  1  0  0  0  0
  8  7  1  0  0  0  0
 10 12  1  0  0  0  0
 10 11  2  0  0  0  0
 12  9  1  0  0  0  0
 13 12  1  0  0  0  0
 14 10  1  0  0  0  0
 15 14  1  0  0  0  0
 16 17  1  0  0  0  0
 16 15  1  0  0  0  0
 18 17  1  0  0  0  0
 19 18  1  0  0  0  0
 21 19  1  0  0  0  0
 21 20  1  0  0  0  0
 22  4  1  0  0  0  0
 22 23  1  0  0  0  0
 23 24  1  0  0  0  0
 24 27  1  6  0  0  0
 24 25  1  0  0  0  0
 25 26  1  0  0  0  0
 27 28  1  0  0  0  0
 28 29  1  0  0  0  0
 30 28  1  0  0  0  0
 31 32  1  6  0  0  0
 31 28  1  0  0  0  0
 33 31  1  0  0  0  0
 33 34  1  0  0  0  0
M  END
>  <MODEL>
4

>  <REMARK>
 VINA RESULT:    -6.430      2.804     10.711
 INTER + INTRA:         -15.061
 INTER:                 -13.634
 INTRA:                  -1.427
 UNBOUND:                -2.054
  Name = CHEMBL173113
  22 active torsions:
  status: ('A' for Active; 'I' for Inactive)
    1  A    between atoms: C_1  and  C_2
    2  A    between atoms: C_2  and  C_3
    3  A    between atoms: C_3  and  C_4
    4  A    between atoms: C_4  and  C_5
    5  A    between atoms: C_5  and  C_6
    6  A    between atoms: C_6  and  C_7
    7  A    between atoms: C_7  and  C_8
    8  A    between atoms: C_8  and  C_9
    9  A    between atoms: N_11  and  C_12
   10  A    between atoms: C_12  and  C_13
   11  A    between atoms: C_16  and  O_17
   12  A    between atoms: O_17  and  C_18
   13  A    between atoms: C_18  and  C_19
   14  A    between atoms: C_19  and  O_20
   15  A    between atoms: C_19  and  C_21
   16  A    between atoms: C_21  and  N_22
   17  A    between atoms: N_22  and  C_23
   18  A    between atoms: C_23  and  C_24
   19  A    between atoms: C_23  and  C_25
   20  A    between atoms: C_25  and  C_26
   21  A    between atoms: C_27  and  O_28
   22  A    between atoms: O_28  and  C_29
                            x       y       z     vdW  Elec       q    Type
                         _______ _______ _______ _____ _____    ______ ____

>  <TORSDO>
F 18

>  <SCORE>
-6.430

>  <RMSD_LB>
2.804

>  <RMSD_UB>
10.711

$$$$
CHEMBL173113
 OpenBabel10162523483D

 34 34  0  0  1  0  0  0  0  0999 V2000
  139.4200  137.7840  151.7680 C   0  0  0  0  0  0  0  0  0  0  0  0
  140.5700  137.3820  151.0850 C   0  0  0  0  0  3  0  0  0  0  0  0
  141.8110  137.3790  151.7280 C   0  0  0  0  0  3  0  0  0  0  0  0
  141.9340  137.7740  153.0660 C   0  0  0  0  0  0  0  0  0  0  0  0
  140.7800  138.1770  153.7590 C   0  0  0  0  0  0  0  0  0  0  0  0
  139.5340  138.1540  153.1120 C   0  0  0  0  0  3  0  0  0  0  0  0
  140.6930  138.5710  155.0700 O   0  0  0  0  0  0  0  0  0  0  0  0
  139.7920  137.8460  155.8980 C   0  0  0  0  0  1  0  0  0  0  0  0
  138.0850  137.8140  151.0790 C   0  0  0  0  0  2  0  0  0  0  0  0
  136.5930  135.9740  151.6500 C   0  0  0  0  0  0  0  0  0  0  0  0
  136.1230  136.5930  152.6020 O   0  0  0  0  0  0  0  0  0  0  0  0
  137.5720  136.4880  150.8380 N   0  0  0  0  0  0  0  0  0  0  0  0
  137.9250  135.9520  150.0910 H   0  0  0  0  0  0  0  0  0  0  0  0
  136.1590  134.5660  151.2840 C   0  0  0  0  0  2  0  0  0  0  0  0
  134.9730  134.1250  152.1400 C   0  0  0  0  0  2  0  0  0  0  0  0
  133.6370  134.6000  151.5690 C   0  0  0  0  0  2  0  0  0  0  0  0
  133.0630  133.5540  150.6110 C   0  0  0  0  0  2  0  0  0  0  0  0
  132.7300  134.1510  149.2450 C   0  0  0  0  0  2  0  0  0  0  0  0
  133.0840  133.1720  148.1240 C   0  0  0  0  0  2  0  0  0  0  0  0
  135.5590  133.3860  147.7180 C   0  0  0  0  0  1  0  0  0  0  0  0
  134.4580  132.5420  148.3420 C   0  0  0  0  0  2  0  0  0  0  0  0
  143.1220  137.7760  153.7460 O   0  0  0  0  0  0  0  0  0  0  0  0
  144.1200  138.7330  153.3700 C   0  0  0  0  0  2  0  0  0  0  0  0
  144.5900  139.4670  154.6360 C   0  0  1  0  0  3  0  0  0  0  0  0
  143.5810  139.3560  155.6520 O   0  0  0  0  0  0  0  0  0  0  0  0
  142.7950  138.9260  155.2810 H   0  0  0  0  0  0  0  0  0  0  0  0
  145.9140  138.9000  155.1900 C   0  0  0  0  0  2  0  0  0  0  0  0
  146.9940  139.8900  155.1520 N   0  0  0  0  0  4  0  0  0  0  0  0
  147.8450  139.4500  155.5020 H   0  0  0  0  0  0  0  0  0  0  0  0
  146.6940  140.6760  155.7280 H   0  0  0  0  0  0  0  0  0  0  0  0
  147.2670  140.4240  153.8070 C   0  0  1  0  0  3  0  0  0  0  0  0
  147.1770  141.9540  153.7630 C   0  0  0  0  0  1  0  0  0  0  0  0
  148.6770  139.9350  153.4090 C   0  0  0  0  0  2  0  0  0  0  0  0
  148.7440  138.4460  153.0920 C   0  0  0  0  0  1  0  0  0  0  0  0
  1  6  1  0  0  0  0
  2  3  1  0  0  0  0
  2  1  2  0  0  0  0
  3  4  2  0  0  0  0
  4 22  1  0  0  0  0
  4  5  1  0  0  0  0
  5  7  1  0  0  0  0
  6  5  2  0  0  0  0
  7  8  1  0  0  0  0
  9  1  1  0  0  0  0
 10 11  2  0  0  0  0
 12  9  1  0  0  0  0
 12 10  1  0  0  0  0
 13 12  1  0  0  0  0
 14 10  1  0  0  0  0
 14 15  1  0  0  0  0
 16 15  1  0  0  0  0
 17 16  1  0  0  0  0
 18 17  1  0  0  0  0
 19 21  1  0  0  0  0
 19 18  1  0  0  0  0
 20 21  1  0  0  0  0
 23 22  1  0  0  0  0
 24 23  1  6  0  0  0
 24 27  1  0  0  0  0
 24 25  1  0  0  0  0
 26 25  1  0  0  0  0
 28 27  1  0  0  0  0
 28 29  1  0  0  0  0
 28 30  1  0  0  0  0
 31 32  1  1  0  0  0
 31 28  1  0  0  0  0
 33 31  1  0  0  0  0
 34 33  1  0  0  0  0
M  END
>  <MODEL>
5

>  <REMARK>
 VINA RESULT:    -6.413      2.907     10.660
 INTER + INTRA:         -15.027
 INTER:                 -13.432
 INTRA:                  -1.595
 UNBOUND:                -2.054
  Name = CHEMBL173113
  22 active torsions:
  status: ('A' for Active; 'I' for Inactive)
    1  A    between atoms: C_1  and  C_2
    2  A    between atoms: C_2  and  C_3
    3  A    between atoms: C_3  and  C_4
    4  A    between atoms: C_4  and  C_5
    5  A    between atoms: C_5  and  C_6
    6  A    between atoms: C_6  and  C_7
    7  A    between atoms: C_7  and  C_8
    8  A    between atoms: C_8  and  C_9
    9  A    between atoms: N_11  and  C_12
   10  A    between atoms: C_12  and  C_13
   11  A    between atoms: C_16  and  O_17
   12  A    between atoms: O_17  and  C_18
   13  A    between atoms: C_18  and  C_19
   14  A    between atoms: C_19  and  O_20
   15  A    between atoms: C_19  and  C_21
   16  A    between atoms: C_21  and  N_22
   17  A    between atoms: N_22  and  C_23
   18  A    between atoms: C_23  and  C_24
   19  A    between atoms: C_23  and  C_25
   20  A    between atoms: C_25  and  C_26
   21  A    between atoms: C_27  and  O_28
   22  A    between atoms: O_28  and  C_29
                            x       y       z     vdW  Elec       q    Type
                         _______ _______ _______ _____ _____    ______ ____

>  <TORSDO>
F 18

>  <SCORE>
-6.413

>  <RMSD_LB>
2.907

>  <RMSD_UB>
10.660

$$$$
CHEMBL173113
 OpenBabel10162523483D

 34 34  0  0  1  0  0  0  0  0999 V2000
  140.2490  138.3610  154.9140 C   0  0  0  0  0  0  0  0  0  0  0  0
  139.4110  137.9020  155.9330 C   0  0  0  0  0  3  0  0  0  0  0  0
  138.1490  137.3820  155.6330 C   0  0  0  0  0  3  0  0  0  0  0  0
  137.6930  137.3040  154.3100 C   0  0  0  0  0  0  0  0  0  0  0  0
  138.5320  137.7620  153.2810 C   0  0  0  0  0  0  0  0  0  0  0  0
  139.8080  138.2610  153.5900 C   0  0  0  0  0  3  0  0  0  0  0  0
  138.2780  137.7460  151.9320 O   0  0  0  0  0  0  0  0  0  0  0  0
  139.1980  138.4380  151.0980 C   0  0  0  0  0  1  0  0  0  0  0  0
  141.5970  138.9440  155.2270 C   0  0  0  0  0  2  0  0  0  0  0  0
  143.6820  139.5450  154.1200 C   0  0  0  0  0  0  0  0  0  0  0  0
  144.2890  139.5850  155.1880 O   0  0  0  0  0  0  0  0  0  0  0  0
  142.3470  139.2420  154.0330 N   0  0  0  0  0  0  0  0  0  0  0  0
  141.9010  139.2300  153.1550 H   0  0  0  0  0  0  0  0  0  0  0  0
  144.3380  139.8470  152.7840 C   0  0  0  0  0  2  0  0  0  0  0  0
  145.7930  140.2710  152.9790 C   0  0  0  0  0  2  0  0  0  0  0  0
  146.0150  141.7490  152.6600 C   0  0  0  0  0  2  0  0  0  0  0  0
  147.4920  142.0170  152.3680 C   0  0  0  0  0  2  0  0  0  0  0  0
  147.7340  142.3430  150.8950 C   0  0  0  0  0  2  0  0  0  0  0  0
  146.4060  142.5270  150.1550 C   0  0  0  0  0  2  0  0  0  0  0  0
  146.6750  140.1530  149.3630 C   0  0  0  0  0  1  0  0  0  0  0  0
  146.2870  141.5710  148.9700 C   0  0  0  0  0  2  0  0  0  0  0  0
  136.4740  136.7900  153.9610 O   0  0  0  0  0  0  0  0  0  0  0  0
  136.0870  135.5230  154.5080 C   0  0  0  0  0  2  0  0  0  0  0  0
  134.5690  135.3610  154.3300 C   0  0  1  0  0  3  0  0  0  0  0  0
  133.9690  136.6560  154.1680 O   0  0  0  0  0  0  0  0  0  0  0  0
  134.3100  137.2580  154.8480 H   0  0  0  0  0  0  0  0  0  0  0  0
  134.2070  134.4920  153.1090 C   0  0  0  0  0  2  0  0  0  0  0  0
  133.5460  135.2700  152.0570 N   0  0  0  0  0  4  0  0  0  0  0  0
  133.6650  136.2610  152.2680 H   0  0  0  0  0  0  0  0  0  0  0  0
  132.5670  134.9850  152.0500 H   0  0  0  0  0  0  0  0  0  0  0  0
  134.0750  135.0180  150.7060 C   0  0  1  0  0  3  0  0  0  0  0  0
  135.5570  134.6250  150.7290 C   0  0  0  0  0  1  0  0  0  0  0  0
  133.2090  133.8990  150.0870 C   0  0  0  0  0  2  0  0  0  0  0  0
  134.0050  132.6800  149.6410 C   0  0  0  0  0  1  0  0  0  0  0  0
  1  9  1  0  0  0  0
  1  2  1  0  0  0  0
  3  2  2  0  0  0  0
  4  3  1  0  0  0  0
  5  6  1  0  0  0  0
  5  4  2  0  0  0  0
  6  1  2  0  0  0  0
  7  5  1  0  0  0  0
  8  7  1  0  0  0  0
 10 11  2  0  0  0  0
 12 10  1  0  0  0  0
 12  9  1  0  0  0  0
 13 12  1  0  0  0  0
 14 15  1  0  0  0  0
 14 10  1  0  0  0  0
 16 15  1  0  0  0  0
 17 16  1  0  0  0  0
 18 17  1  0  0  0  0
 19 18  1  0  0  0  0
 21 20  1  0  0  0  0
 21 19  1  0  0  0  0
 22  4  1  0  0  0  0
 22 23  1  0  0  0  0
 24 27  1  6  0  0  0
 24 23  1  0  0  0  0
 25 24  1  0  0  0  0
 25 26  1  0  0  0  0
 28 29  1  0  0  0  0
 28 27  1  0  0  0  0
 30 28  1  0  0  0  0
 31 32  1  1  0  0  0
 31 28  1  0  0  0  0
 33 31  1  0  0  0  0
 34 33  1  0  0  0  0
M  END
>  <MODEL>
6

>  <REMARK>
 VINA RESULT:    -6.399      2.418      3.864
 INTER + INTRA:         -15.000
 INTER:                 -13.544
 INTRA:                  -1.456
 UNBOUND:                -2.054
  Name = CHEMBL173113
  22 active torsions:
  status: ('A' for Active; 'I' for Inactive)
    1  A    between atoms: C_1  and  C_2
    2  A    between atoms: C_2  and  C_3
    3  A    between atoms: C_3  and  C_4
    4  A    between atoms: C_4  and  C_5
    5  A    between atoms: C_5  and  C_6
    6  A    between atoms: C_6  and  C_7
    7  A    between atoms: C_7  and  C_8
    8  A    between atoms: C_8  and  C_9
    9  A    between atoms: N_11  and  C_12
   10  A    between atoms: C_12  and  C_13
   11  A    between atoms: C_16  and  O_17
   12  A    between atoms: O_17  and  C_18
   13  A    between atoms: C_18  and  C_19
   14  A    between atoms: C_19  and  O_20
   15  A    between atoms: C_19  and  C_21
   16  A    between atoms: C_21  and  N_22
   17  A    between atoms: N_22  and  C_23
   18  A    between atoms: C_23  and  C_24
   19  A    between atoms: C_23  and  C_25
   20  A    between atoms: C_25  and  C_26
   21  A    between atoms: C_27  and  O_28
   22  A    between atoms: O_28  and  C_29
                            x       y       z     vdW  Elec       q    Type
                         _______ _______ _______ _____ _____    ______ ____

>  <TORSDO>
F 18

>  <SCORE>
-6.399

>  <RMSD_LB>
2.418

>  <RMSD_UB>
3.864

$$$$
CHEMBL173113
 OpenBabel10162523483D

 34 34  0  0  1  0  0  0  0  0999 V2000
  141.1270  138.9060  154.1560 C   0  0  0  0  0  0  0  0  0  0  0  0
  141.8470  139.2760  155.2940 C   0  0  0  0  0  3  0  0  0  0  0  0
  143.2420  139.3500  155.2580 C   0  0  0  0  0  3  0  0  0  0  0  0
  143.9520  139.0610  154.0850 C   0  0  0  0  0  0  0  0  0  0  0  0
  143.2340  138.6910  152.9360 C   0  0  0  0  0  0  0  0  0  0  0  0
  141.8310  138.6420  152.9760 C   0  0  0  0  0  3  0  0  0  0  0  0
  143.7430  138.3970  151.6960 O   0  0  0  0  0  0  0  0  0  0  0  0
  143.9980  137.0260  151.4160 C   0  0  0  0  0  1  0  0  0  0  0  0
  139.6300  138.7990  154.1910 C   0  0  0  0  0  2  0  0  0  0  0  0
  137.9000  138.1920  155.7970 C   0  0  0  0  0  0  0  0  0  0  0  0
  137.1140  139.0090  155.3250 O   0  0  0  0  0  0  0  0  0  0  0  0
  139.1710  138.0140  155.3100 N   0  0  0  0  0  0  0  0  0  0  0  0
  139.7700  137.3520  155.7260 H   0  0  0  0  0  0  0  0  0  0  0  0
  137.5610  137.3060  156.9820 C   0  0  0  0  0  2  0  0  0  0  0  0
  137.2510  135.8820  156.5220 C   0  0  0  0  0  2  0  0  0  0  0  0
  135.7590  135.6660  156.2680 C   0  0  0  0  0  2  0  0  0  0  0  0
  135.5050  135.3850  154.7860 C   0  0  0  0  0  2  0  0  0  0  0  0
  134.0460  135.6260  154.4010 C   0  0  0  0  0  2  0  0  0  0  0  0
  133.6940  134.8770  153.1130 C   0  0  0  0  0  2  0  0  0  0  0  0
  135.1310  134.1120  151.1940 C   0  0  0  0  0  1  0  0  0  0  0  0
  134.5830  135.3130  151.9490 C   0  0  0  0  0  2  0  0  0  0  0  0
  145.3160  139.1330  153.9920 O   0  0  0  0  0  0  0  0  0  0  0  0
  146.0920  138.9170  155.1770 C   0  0  0  0  0  2  0  0  0  0  0  0
  147.5450  138.6390  154.7620 C   0  0  1  0  0  3  0  0  0  0  0  0
  147.5540  137.7960  153.6010 O   0  0  0  0  0  0  0  0  0  0  0  0
  148.4710  137.6150  153.3390 H   0  0  0  0  0  0  0  0  0  0  0  0
  148.3250  139.9310  154.4420 C   0  0  0  0  0  2  0  0  0  0  0  0
  147.4810  141.1250  154.5560 N   0  0  0  0  0  4  0  0  0  0  0  0
  147.7380  141.6190  155.4110 H   0  0  0  0  0  0  0  0  0  0  0  0
  146.5140  140.8020  154.5640 H   0  0  0  0  0  0  0  0  0  0  0  0
  147.6120  142.0580  153.4240 C   0  0  1  0  0  3  0  0  0  0  0  0
  148.5310  141.5100  152.3260 C   0  0  0  0  0  1  0  0  0  0  0  0
  146.1870  142.3140  152.8880 C   0  0  0  0  0  2  0  0  0  0  0  0
  146.0980  142.3420  151.3670 C   0  0  0  0  0  1  0  0  0  0  0  0
  1  9  1  0  0  0  0
  1  2  1  0  0  0  0
  3  2  2  0  0  0  0
  4  3  1  0  0  0  0
  5  6  1  0  0  0  0
  5  4  2  0  0  0  0
  6  1  2  0  0  0  0
  7  5  1  0  0  0  0
  8  7  1  0  0  0  0
  9 12  1  0  0  0  0
 10 14  1  0  0  0  0
 11 10  2  0  0  0  0
 12 13  1  0  0  0  0
 12 10  1  0  0  0  0
 15 14  1  0  0  0  0
 16 15  1  0  0  0  0
 17 16  1  0  0  0  0
 18 17  1  0  0  0  0
 19 18  1  0  0  0  0
 20 21  1  0  0  0  0
 21 19  1  0  0  0  0
 22  4  1  0  0  0  0
 22 23  1  0  0  0  0
 24 27  1  6  0  0  0
 24 23  1  0  0  0  0
 25 24  1  0  0  0  0
 26 25  1  0  0  0  0
 27 28  1  0  0  0  0
 28 30  1  0  0  0  0
 28 29  1  0  0  0  0
 31 32  1  6  0  0  0
 31 28  1  0  0  0  0
 33 31  1  0  0  0  0
 34 33  1  0  0  0  0
M  END
>  <MODEL>
7

>  <REMARK>
 VINA RESULT:    -6.379      2.068     10.357
 INTER + INTRA:         -14.958
 INTER:                 -13.472
 INTRA:                  -1.486
 UNBOUND:                -2.054
  Name = CHEMBL173113
  22 active torsions:
  status: ('A' for Active; 'I' for Inactive)
    1  A    between atoms: C_1  and  C_2
    2  A    between atoms: C_2  and  C_3
    3  A    between atoms: C_3  and  C_4
    4  A    between atoms: C_4  and  C_5
    5  A    between atoms: C_5  and  C_6
    6  A    between atoms: C_6  and  C_7
    7  A    between atoms: C_7  and  C_8
    8  A    between atoms: C_8  and  C_9
    9  A    between atoms: N_11  and  C_12
   10  A    between atoms: C_12  and  C_13
   11  A    between atoms: C_16  and  O_17
   12  A    between atoms: O_17  and  C_18
   13  A    between atoms: C_18  and  C_19
   14  A    between atoms: C_19  and  O_20
   15  A    between atoms: C_19  and  C_21
   16  A    between atoms: C_21  and  N_22
   17  A    between atoms: N_22  and  C_23
   18  A    between atoms: C_23  and  C_24
   19  A    between atoms: C_23  and  C_25
   20  A    between atoms: C_25  and  C_26
   21  A    between atoms: C_27  and  O_28
   22  A    between atoms: O_28  and  C_29
                            x       y       z     vdW  Elec       q    Type
                         _______ _______ _______ _____ _____    ______ ____

>  <TORSDO>
F 18

>  <SCORE>
-6.379

>  <RMSD_LB>
2.068

>  <RMSD_UB>
10.357

$$$$
CHEMBL173113
 OpenBabel10162523483D

 34 34  0  0  1  0  0  0  0  0999 V2000
  140.0770  137.9090  151.2170 C   0  0  0  0  0  0  0  0  0  0  0  0
  140.0330  138.0820  152.6030 C   0  0  0  0  0  3  0  0  0  0  0  0
  138.8650  137.7960  153.3160 C   0  0  0  0  0  3  0  0  0  0  0  0
  137.7160  137.3280  152.6650 C   0  0  0  0  0  0  0  0  0  0  0  0
  137.7550  137.1510  151.2720 C   0  0  0  0  0  0  0  0  0  0  0  0
  138.9400  137.4180  150.5670 C   0  0  0  0  0  3  0  0  0  0  0  0
  136.7490  136.6820  150.4650 O   0  0  0  0  0  0  0  0  0  0  0  0
  136.6080  137.3000  149.1920 C   0  0  0  0  0  1  0  0  0  0  0  0
  141.3190  138.2370  150.4390 C   0  0  0  0  0  2  0  0  0  0  0  0
  143.1560  139.8210  150.6800 C   0  0  0  0  0  0  0  0  0  0  0  0
  143.1330  140.0970  149.4830 O   0  0  0  0  0  0  0  0  0  0  0  0
  142.3030  138.9100  151.2510 N   0  0  0  0  0  0  0  0  0  0  0  0
  142.3640  138.7140  152.2140 H   0  0  0  0  0  0  0  0  0  0  0  0
  144.1440  140.4400  151.6530 C   0  0  0  0  0  2  0  0  0  0  0  0
  145.0930  141.3920  150.9280 C   0  0  0  0  0  2  0  0  0  0  0  0
  145.6810  142.4490  151.8630 C   0  0  0  0  0  2  0  0  0  0  0  0
  146.0210  141.8320  153.2210 C   0  0  0  0  0  2  0  0  0  0  0  0
  147.5090  141.9500  153.5460 C   0  0  0  0  0  2  0  0  0  0  0  0
  148.3420  141.0780  152.6030 C   0  0  0  0  0  2  0  0  0  0  0  0
  147.5980  138.7060  152.2100 C   0  0  0  0  0  1  0  0  0  0  0  0
  148.4170  139.6340  153.0940 C   0  0  0  0  0  2  0  0  0  0  0  0
  136.5530  137.0190  153.3160 O   0  0  0  0  0  0  0  0  0  0  0  0
  136.3920  135.6910  153.8300 C   0  0  0  0  0  2  0  0  0  0  0  0
  134.8940  135.3470  153.8240 C   0  0  1  0  0  3  0  0  0  0  0  0
  134.1360  136.5150  154.1730 O   0  0  0  0  0  0  0  0  0  0  0  0
  134.0230  137.0730  153.3880 H   0  0  0  0  0  0  0  0  0  0  0  0
  134.4110  134.8360  152.4510 C   0  0  0  0  0  2  0  0  0  0  0  0
  134.1720  135.9330  151.5100 N   0  0  0  0  0  4  0  0  0  0  0  0
  134.8980  135.9050  150.7930 H   0  0  0  0  0  0  0  0  0  0  0  0
  134.1910  136.7970  152.0520 H   0  0  0  0  0  0  0  0  0  0  0  0
  132.8610  135.8740  150.8430 C   0  0  1  0  0  3  0  0  0  0  0  0
  132.8410  136.6710  149.5340 C   0  0  0  0  0  1  0  0  0  0  0  0
  132.5530  134.3810  150.5940 C   0  0  0  0  0  2  0  0  0  0  0  0
  132.8570  133.9180  149.1750 C   0  0  0  0  0  1  0  0  0  0  0  0
  1  2  1  0  0  0  0
  2  3  2  0  0  0  0
  4 22  1  0  0  0  0
  4  3  1  0  0  0  0
  5  4  2  0  0  0  0
  6  1  2  0  0  0  0
  6  5  1  0  0  0  0
  7  5  1  0  0  0  0
  8  7  1  0  0  0  0
  9  1  1  0  0  0  0
  9 12  1  0  0  0  0
 10 12  1  0  0  0  0
 10 14  1  0  0  0  0
 11 10  2  0  0  0  0
 12 13  1  0  0  0  0
 15 14  1  0  0  0  0
 15 16  1  0  0  0  0
 16 17  1  0  0  0  0
 17 18  1  0  0  0  0
 19 21  1  0  0  0  0
 19 18  1  0  0  0  0
 20 21  1  0  0  0  0
 22 23  1  0  0  0  0
 24 27  1  6  0  0  0
 24 23  1  0  0  0  0
 24 25  1  0  0  0  0
 26 25  1  0  0  0  0
 28 30  1  0  0  0  0
 28 27  1  0  0  0  0
 29 28  1  0  0  0  0
 31 32  1  6  0  0  0
 31 28  1  0  0  0  0
 33 31  1  0  0  0  0
 34 33  1  0  0  0  0
M  END
>  <MODEL>
8

>  <REMARK>
 VINA RESULT:    -6.341      2.615      3.877
 INTER + INTRA:         -14.883
 INTER:                 -12.845
 INTRA:                  -2.038
 UNBOUND:                -2.054
  Name = CHEMBL173113
  22 active torsions:
  status: ('A' for Active; 'I' for Inactive)
    1  A    between atoms: C_1  and  C_2
    2  A    between atoms: C_2  and  C_3
    3  A    between atoms: C_3  and  C_4
    4  A    between atoms: C_4  and  C_5
    5  A    between atoms: C_5  and  C_6
    6  A    between atoms: C_6  and  C_7
    7  A    between atoms: C_7  and  C_8
    8  A    between atoms: C_8  and  C_9
    9  A    between atoms: N_11  and  C_12
   10  A    between atoms: C_12  and  C_13
   11  A    between atoms: C_16  and  O_17
   12  A    between atoms: O_17  and  C_18
   13  A    between atoms: C_18  and  C_19
   14  A    between atoms: C_19  and  O_20
   15  A    between atoms: C_19  and  C_21
   16  A    between atoms: C_21  and  N_22
   17  A    between atoms: N_22  and  C_23
   18  A    between atoms: C_23  and  C_24
   19  A    between atoms: C_23  and  C_25
   20  A    between atoms: C_25  and  C_26
   21  A    between atoms: C_27  and  O_28
   22  A    between atoms: O_28  and  C_29
                            x       y       z     vdW  Elec       q    Type
                         _______ _______ _______ _____ _____    ______ ____

>  <TORSDO>
F 18

>  <SCORE>
-6.341

>  <RMSD_LB>
2.615

>  <RMSD_UB>
3.877

$$$$
CHEMBL173113
 OpenBabel10162523483D

 34 34  0  0  1  0  0  0  0  0999 V2000
  142.3310  137.2530  151.3410 C   0  0  0  0  0  0  0  0  0  0  0  0
  142.9550  137.4270  152.5780 C   0  0  0  0  0  3  0  0  0  0  0  0
  142.2520  137.9770  153.6550 C   0  0  0  0  0  3  0  0  0  0  0  0
  140.9110  138.3630  153.5230 C   0  0  0  0  0  0  0  0  0  0  0  0
  140.2790  138.1880  152.2810 C   0  0  0  0  0  0  0  0  0  0  0  0
  140.9860  137.6130  151.2120 C   0  0  0  0  0  3  0  0  0  0  0  0
  138.9760  138.4780  151.9640 O   0  0  0  0  0  0  0  0  0  0  0  0
  138.1620  137.3910  151.5420 C   0  0  0  0  0  1  0  0  0  0  0  0
  143.0850  136.6860  150.1710 C   0  0  0  0  0  2  0  0  0  0  0  0
  145.2430  137.7190  149.7150 C   0  0  0  0  0  0  0  0  0  0  0  0
  145.8270  136.9310  150.4550 O   0  0  0  0  0  0  0  0  0  0  0  0
  143.8870  137.6850  149.5110 N   0  0  0  0  0  0  0  0  0  0  0  0
  143.4610  138.3430  148.9150 H   0  0  0  0  0  0  0  0  0  0  0  0
  145.9550  138.8310  148.9640 C   0  0  0  0  0  2  0  0  0  0  0  0
  146.3770  139.9460  149.9190 C   0  0  0  0  0  2  0  0  0  0  0  0
  145.1930  140.8020  150.3700 C   0  0  0  0  0  2  0  0  0  0  0  0
  145.6700  142.1910  150.7970 C   0  0  0  0  0  2  0  0  0  0  0  0
  145.8740  142.2860  152.3080 C   0  0  0  0  0  2  0  0  0  0  0  0
  147.3530  142.1210  152.6680 C   0  0  0  0  0  2  0  0  0  0  0  0
  146.3680  140.2330  154.0090 C   0  0  0  0  0  1  0  0  0  0  0  0
  147.6210  140.7760  153.3400 C   0  0  0  0  0  2  0  0  0  0  0  0
  140.1750  138.8920  154.5470 O   0  0  0  0  0  0  0  0  0  0  0  0
  139.6100  137.9960  155.5130 C   0  0  0  0  0  2  0  0  0  0  0  0
  138.0820  138.1610  155.4930 C   0  0  1  0  0  3  0  0  0  0  0  0
  137.7320  139.2390  154.6110 O   0  0  0  0  0  0  0  0  0  0  0  0
  137.4830  140.0170  155.1340 H   0  0  0  0  0  0  0  0  0  0  0  0
  137.3560  136.8830  155.0230 C   0  0  0  0  0  2  0  0  0  0  0  0
  136.0320  136.7460  155.6380 N   0  0  0  0  0  4  0  0  0  0  0  0
  135.5930  137.6670  155.6630 H   0  0  0  0  0  0  0  0  0  0  0  0
  136.1780  136.3560  156.5690 H   0  0  0  0  0  0  0  0  0  0  0  0
  135.1340  135.8240  154.9220 C   0  0  1  0  0  3  0  0  0  0  0  0
  135.8100  135.1900  153.7010 C   0  0  0  0  0  1  0  0  0  0  0  0
  134.6930  134.7500  155.9400 C   0  0  0  0  0  2  0  0  0  0  0  0
  135.1850  135.0070  157.3580 C   0  0  0  0  0  1  0  0  0  0  0  0
  1  2  1  0  0  0  0
  2  3  2  0  0  0  0
  4  3  1  0  0  0  0
  4 22  1  0  0  0  0
  5  4  2  0  0  0  0
  6  1  2  0  0  0  0
  6  5  1  0  0  0  0
  7  5  1  0  0  0  0
  8  7  1  0  0  0  0
  9  1  1  0  0  0  0
 10 11  2  0  0  0  0
 12 10  1  0  0  0  0
 12  9  1  0  0  0  0
 13 12  1  0  0  0  0
 14 10  1  0  0  0  0
 14 15  1  0  0  0  0
 15 16  1  0  0  0  0
 16 17  1  0  0  0  0
 17 18  1  0  0  0  0
 18 19  1  0  0  0  0
 19 21  1  0  0  0  0
 21 20  1  0  0  0  0
 22 23  1  0  0  0  0
 24 27  1  6  0  0  0
 24 23  1  0  0  0  0
 25 26  1  0  0  0  0
 25 24  1  0  0  0  0
 27 28  1  0  0  0  0
 28 29  1  0  0  0  0
 28 30  1  0  0  0  0
 31 32  1  6  0  0  0
 31 28  1  0  0  0  0
 31 33  1  0  0  0  0
 33 34  1  0  0  0  0
M  END
>  <MODEL>
9

>  <REMARK>
 VINA RESULT:    -6.272      1.237      2.172
 INTER + INTRA:         -14.743
 INTER:                 -12.689
 INTRA:                  -2.054
 UNBOUND:                -2.054
  Name = CHEMBL173113
  22 active torsions:
  status: ('A' for Active; 'I' for Inactive)
    1  A    between atoms: C_1  and  C_2
    2  A    between atoms: C_2  and  C_3
    3  A    between atoms: C_3  and  C_4
    4  A    between atoms: C_4  and  C_5
    5  A    between atoms: C_5  and  C_6
    6  A    between atoms: C_6  and  C_7
    7  A    between atoms: C_7  and  C_8
    8  A    between atoms: C_8  and  C_9
    9  A    between atoms: N_11  and  C_12
   10  A    between atoms: C_12  and  C_13
   11  A    between atoms: C_16  and  O_17
   12  A    between atoms: O_17  and  C_18
   13  A    between atoms: C_18  and  C_19
   14  A    between atoms: C_19  and  O_20
   15  A    between atoms: C_19  and  C_21
   16  A    between atoms: C_21  and  N_22
   17  A    between atoms: N_22  and  C_23
   18  A    between atoms: C_23  and  C_24
   19  A    between atoms: C_23  and  C_25
   20  A    between atoms: C_25  and  C_26
   21  A    between atoms: C_27  and  O_28
   22  A    between atoms: O_28  and  C_29
                            x       y       z     vdW  Elec       q    Type
                         _______ _______ _______ _____ _____    ______ ____

>  <TORSDO>
F 18

>  <SCORE>
-6.272

>  <RMSD_LB>
1.237

>  <RMSD_UB>
2.172

$$$$
