CHEMBL246648
 OpenBabel10162523423D

 28 29  0  0  0  0  0  0  0  0999 V2000
  146.1600  138.6380  154.9340 C   0  0  0  0  0  0  0  0  0  0  0  0
  147.5160  138.3360  155.8600 S   0  0  0  0  0  0  0  0  0  0  0  0
  145.6870  139.8710  154.5730 N   0  0  0  0  0  0  0  0  0  0  0  0
  144.7160  140.0310  154.5990 H   0  0  0  0  0  0  0  0  0  0  0  0
  146.5620  140.9500  154.1530 C   0  0  0  0  0  2  0  0  0  0  0  0
  145.3430  141.1110  150.5280 C   0  0  0  0  0  0  0  0  0  0  0  0
  145.4210  140.7710  151.8870 C   0  0  0  0  0  3  0  0  0  0  0  0
  146.4970  141.2210  152.6720 C   0  0  0  0  0  0  0  0  0  0  0  0
  147.4980  142.0000  152.0710 C   0  0  0  0  0  3  0  0  0  0  0  0
  147.4320  142.3290  150.7140 C   0  0  0  0  0  3  0  0  0  0  0  0
  146.3570  141.8770  149.9580 C   0  0  0  0  0  0  0  0  0  0  0  0
  143.1130  140.3540  150.2580 C   0  0  0  0  0  1  0  0  0  0  0  0
  144.3270  140.7720  149.6780 O   0  0  0  0  0  0  0  0  0  0  0  0
  146.2770  142.2000  148.6290 O   0  0  0  0  0  0  0  0  0  0  0  0
  146.6380  143.0080  148.3210 H   0  0  0  0  0  0  0  0  0  0  0  0
  145.4160  137.5720  154.5310 N   0  0  0  0  0  0  0  0  0  0  0  0
  145.0690  136.9960  155.2490 H   0  0  0  0  0  0  0  0  0  0  0  0
  145.0670  137.1790  153.1800 C   0  0  0  0  0  2  0  0  0  0  0  0
  143.6240  137.3890  152.7900 C   0  0  0  0  0  0  0  0  0  0  0  0
  142.6700  137.9500  153.6420 C   0  0  0  0  0  3  0  0  0  0  0  0
  141.3460  138.1300  153.2210 C   0  0  0  0  0  3  0  0  0  0  0  0
  140.9170  137.7370  151.9400 C   0  0  0  0  0  0  0  0  0  0  0  0
  141.8860  137.1710  151.0950 C   0  0  0  0  0  3  0  0  0  0  0  0
  143.2120  137.0010  151.5110 C   0  0  0  0  0  3  0  0  0  0  0  0
  139.4560  137.8800  151.4700 C   0  0  0  0  0  0  0  0  0  0  0  0
  138.4390  137.6800  152.6150 C   0  0  0  0  0  1  0  0  0  0  0  0
  139.1970  139.2650  150.8430 C   0  0  0  0  0  1  0  0  0  0  0  0
  139.1430  136.8350  150.3790 C   0  0  0  0  0  1  0  0  0  0  0  0
  1  2  2  0  0  0  0
  3  4  1  0  0  0  0
  3  1  1  0  0  0  0
  5  3  1  0  0  0  0
  6  7  1  0  0  0  0
  7  8  2  0  0  0  0
  8  5  1  0  0  0  0
  9  8  1  0  0  0  0
 10  9  2  0  0  0  0
 11  6  2  0  0  0  0
 11 10  1  0  0  0  0
 13 12  1  0  0  0  0
 13  6  1  0  0  0  0
 14 11  1  0  0  0  0
 15 14  1  0  0  0  0
 16  1  1  0  0  0  0
 16 17  1  0  0  0  0
 18 16  1  0  0  0  0
 19 18  1  0  0  0  0
 19 20  1  0  0  0  0
 21 20  2  0  0  0  0
 22 21  1  0  0  0  0
 23 24  1  0  0  0  0
 23 22  2  0  0  0  0
 24 19  2  0  0  0  0
 25 22  1  0  0  0  0
 25 26  1  0  0  0  0
 27 25  1  0  0  0  0
 28 25  1  0  0  0  0
M  END
>  <MODEL>
1

>  <REMARK>
 VINA RESULT:    -7.108      0.000      0.000
 INTER + INTRA:         -12.434
 INTER:                 -11.102
 INTRA:                  -1.332
 UNBOUND:                -1.794
  Name = CHEMBL246648
  13 active torsions:
  status: ('A' for Active; 'I' for Inactive)
    1  A    between atoms: C_1  and  O_2
    2  A    between atoms: O_2  and  C_3
    3  A    between atoms: C_5  and  C_6
    4  A    between atoms: C_6  and  N_7
    5  A    between atoms: N_7  and  C_8
    6  A    between atoms: C_8  and  N_10
    7  A    between atoms: N_10  and  C_11
    8  A    between atoms: C_11  and  C_12
    9  A    between atoms: C_15  and  C_16
   10  A    between atoms: C_16  and  C_17
   11  A    between atoms: C_16  and  C_18
   12  A    between atoms: C_16  and  C_19
   13  A    between atoms: C_24  and  O_25
                            x       y       z     vdW  Elec       q    Type
                         _______ _______ _______ _____ _____    ______ ____

>  <TORSDO>
F 9

>  <SCORE>
-7.108

>  <RMSD_LB>
0.000

>  <RMSD_UB>
0.000

$$$$
CHEMBL246648
 OpenBabel10162523423D

 28 29  0  0  0  0  0  0  0  0999 V2000
  138.1060  137.6810  149.7600 C   0  0  0  0  0  0  0  0  0  0  0  0
  138.6630  139.2550  149.7630 S   0  0  0  0  0  0  0  0  0  0  0  0
  136.7950  137.2890  149.7450 N   0  0  0  0  0  0  0  0  0  0  0  0
  136.1320  137.8710  149.3090 H   0  0  0  0  0  0  0  0  0  0  0  0
  136.3440  136.0480  150.3480 C   0  0  0  0  0  2  0  0  0  0  0  0
  133.2220  135.6180  148.1740 C   0  0  0  0  0  0  0  0  0  0  0  0
  134.2600  136.2220  148.9000 C   0  0  0  0  0  3  0  0  0  0  0  0
  135.1660  135.4360  149.6330 C   0  0  0  0  0  0  0  0  0  0  0  0
  135.0060  134.0420  149.6400 C   0  0  0  0  0  3  0  0  0  0  0  0
  133.9650  133.4360  148.9300 C   0  0  0  0  0  3  0  0  0  0  0  0
  133.0840  134.2330  148.2090 C   0  0  0  0  0  0  0  0  0  0  0  0
  132.8090  137.2230  146.4800 C   0  0  0  0  0  1  0  0  0  0  0  0
  132.3120  136.2710  147.3920 O   0  0  0  0  0  0  0  0  0  0  0  0
  132.0640  133.6510  147.5030 O   0  0  0  0  0  0  0  0  0  0  0  0
  131.3420  133.2630  147.9570 H   0  0  0  0  0  0  0  0  0  0  0  0
  139.0270  136.6820  149.8280 N   0  0  0  0  0  0  0  0  0  0  0  0
  139.2180  136.3340  150.7280 H   0  0  0  0  0  0  0  0  0  0  0  0
  139.7620  136.0620  148.7420 C   0  0  0  0  0  2  0  0  0  0  0  0
  138.9300  135.2910  147.7470 C   0  0  0  0  0  0  0  0  0  0  0  0
  138.5750  135.7870  146.4900 C   0  0  0  0  0  3  0  0  0  0  0  0
  137.8080  135.0190  145.6030 C   0  0  0  0  0  3  0  0  0  0  0  0
  137.3470  133.7350  145.9440 C   0  0  0  0  0  0  0  0  0  0  0  0
  137.7080  133.2500  147.2120 C   0  0  0  0  0  3  0  0  0  0  0  0
  138.4840  134.0110  148.0950 C   0  0  0  0  0  3  0  0  0  0  0  0
  136.4630  132.8900  145.0060 C   0  0  0  0  0  0  0  0  0  0  0  0
  134.9650  133.2520  145.1140 C   0  0  0  0  0  1  0  0  0  0  0  0
  136.8850  133.0540  143.5320 C   0  0  0  0  0  1  0  0  0  0  0  0
  136.6070  131.3920  145.3450 C   0  0  0  0  0  1  0  0  0  0  0  0
  1  2  2  0  0  0  0
  1 16  1  0  0  0  0
  3  1  1  0  0  0  0
  3  5  1  0  0  0  0
  4  3  1  0  0  0  0
  6 11  2  0  0  0  0
  6  7  1  0  0  0  0
  7  8  2  0  0  0  0
  8  9  1  0  0  0  0
  8  5  1  0  0  0  0
 10  9  2  0  0  0  0
 11 10  1  0  0  0  0
 12 13  1  0  0  0  0
 13  6  1  0  0  0  0
 14 15  1  0  0  0  0
 14 11  1  0  0  0  0
 16 17  1  0  0  0  0
 18 16  1  0  0  0  0
 19 24  1  0  0  0  0
 19 18  1  0  0  0  0
 20 19  2  0  0  0  0
 21 22  2  0  0  0  0
 21 20  1  0  0  0  0
 22 23  1  0  0  0  0
 23 24  2  0  0  0  0
 25 26  1  0  0  0  0
 25 28  1  0  0  0  0
 25 22  1  0  0  0  0
 27 25  1  0  0  0  0
M  END
>  <MODEL>
2

>  <REMARK>
 VINA RESULT:    -6.501      7.949     11.077
 INTER + INTRA:         -11.526
 INTER:                  -9.470
 INTRA:                  -2.056
 UNBOUND:                -1.794
  Name = CHEMBL246648
  13 active torsions:
  status: ('A' for Active; 'I' for Inactive)
    1  A    between atoms: C_1  and  O_2
    2  A    between atoms: O_2  and  C_3
    3  A    between atoms: C_5  and  C_6
    4  A    between atoms: C_6  and  N_7
    5  A    between atoms: N_7  and  C_8
    6  A    between atoms: C_8  and  N_10
    7  A    between atoms: N_10  and  C_11
    8  A    between atoms: C_11  and  C_12
    9  A    between atoms: C_15  and  C_16
   10  A    between atoms: C_16  and  C_17
   11  A    between atoms: C_16  and  C_18
   12  A    between atoms: C_16  and  C_19
   13  A    between atoms: C_24  and  O_25
                            x       y       z     vdW  Elec       q    Type
                         _______ _______ _______ _____ _____    ______ ____

>  <TORSDO>
F 9

>  <SCORE>
-6.501

>  <RMSD_LB>
7.949

>  <RMSD_UB>
11.077

$$$$
CHEMBL246648
 OpenBabel10162523423D

 28 29  0  0  0  0  0  0  0  0999 V2000
  142.6120  138.2910  151.6680 C   0  0  0  0  0  0  0  0  0  0  0  0
  143.3060  137.1890  150.6240 S   0  0  0  0  0  0  0  0  0  0  0  0
  143.1880  139.4480  152.1200 N   0  0  0  0  0  0  0  0  0  0  0  0
  142.8340  139.8640  152.9390 H   0  0  0  0  0  0  0  0  0  0  0  0
  144.2980  140.0850  151.4370 C   0  0  0  0  0  2  0  0  0  0  0  0
  147.1510  140.0170  153.9900 C   0  0  0  0  0  0  0  0  0  0  0  0
  146.0750  139.6000  153.1920 C   0  0  0  0  0  3  0  0  0  0  0  0
  145.3970  140.5200  152.3730 C   0  0  0  0  0  0  0  0  0  0  0  0
  145.8030  141.8640  152.3800 C   0  0  0  0  0  3  0  0  0  0  0  0
  146.8650  142.2870  153.1840 C   0  0  0  0  0  3  0  0  0  0  0  0
  147.5230  141.3590  153.9820 C   0  0  0  0  0  0  0  0  0  0  0  0
  147.2580  138.5510  155.8490 C   0  0  0  0  0  1  0  0  0  0  0  0
  147.9110  139.2100  154.7890 O   0  0  0  0  0  0  0  0  0  0  0  0
  148.5700  141.7610  154.7690 O   0  0  0  0  0  0  0  0  0  0  0  0
  148.7670  141.2980  155.5590 H   0  0  0  0  0  0  0  0  0  0  0  0
  141.3780  138.0050  152.1640 N   0  0  0  0  0  0  0  0  0  0  0  0
  141.3320  137.2490  152.7910 H   0  0  0  0  0  0  0  0  0  0  0  0
  140.1220  138.6750  151.8890 C   0  0  0  0  0  2  0  0  0  0  0  0
  138.8770  137.9050  152.2600 C   0  0  0  0  0  0  0  0  0  0  0  0
  138.4360  137.7410  153.5750 C   0  0  0  0  0  3  0  0  0  0  0  0
  137.2650  137.0240  153.8580 C   0  0  0  0  0  3  0  0  0  0  0  0
  136.5000  136.4250  152.8410 C   0  0  0  0  0  0  0  0  0  0  0  0
  136.9570  136.5950  151.5230 C   0  0  0  0  0  3  0  0  0  0  0  0
  138.1200  137.3210  151.2380 C   0  0  0  0  0  3  0  0  0  0  0  0
  135.2370  135.5920  153.1290 C   0  0  0  0  0  0  0  0  0  0  0  0
  134.7640  135.7140  154.5950 C   0  0  0  0  0  1  0  0  0  0  0  0
  134.0650  136.0080  152.2170 C   0  0  0  0  0  1  0  0  0  0  0  0
  135.5080  134.1000  152.8490 C   0  0  0  0  0  1  0  0  0  0  0  0
  1  3  1  0  0  0  0
  1 16  1  0  0  0  0
  2  1  2  0  0  0  0
  3  4  1  0  0  0  0
  5  3  1  0  0  0  0
  5  8  1  0  0  0  0
  6 13  1  0  0  0  0
  7  6  2  0  0  0  0
  8  9  2  0  0  0  0
  8  7  1  0  0  0  0
  9 10  1  0  0  0  0
 10 11  2  0  0  0  0
 11  6  1  0  0  0  0
 11 14  1  0  0  0  0
 13 12  1  0  0  0  0
 14 15  1  0  0  0  0
 16 17  1  0  0  0  0
 18 16  1  0  0  0  0
 18 19  1  0  0  0  0
 19 20  1  0  0  0  0
 20 21  2  0  0  0  0
 22 25  1  0  0  0  0
 22 21  1  0  0  0  0
 23 22  2  0  0  0  0
 24 23  1  0  0  0  0
 24 19  2  0  0  0  0
 25 26  1  0  0  0  0
 27 25  1  0  0  0  0
 28 25  1  0  0  0  0
M  END
>  <MODEL>
3

>  <REMARK>
 VINA RESULT:    -6.405      3.331      4.801
 INTER + INTRA:         -11.383
 INTER:                 -10.765
 INTRA:                  -0.618
 UNBOUND:                -1.794
  Name = CHEMBL246648
  13 active torsions:
  status: ('A' for Active; 'I' for Inactive)
    1  A    between atoms: C_1  and  O_2
    2  A    between atoms: O_2  and  C_3
    3  A    between atoms: C_5  and  C_6
    4  A    between atoms: C_6  and  N_7
    5  A    between atoms: N_7  and  C_8
    6  A    between atoms: C_8  and  N_10
    7  A    between atoms: N_10  and  C_11
    8  A    between atoms: C_11  and  C_12
    9  A    between atoms: C_15  and  C_16
   10  A    between atoms: C_16  and  C_17
   11  A    between atoms: C_16  and  C_18
   12  A    between atoms: C_16  and  C_19
   13  A    between atoms: C_24  and  O_25
                            x       y       z     vdW  Elec       q    Type
                         _______ _______ _______ _____ _____    ______ ____

>  <TORSDO>
F 9

>  <SCORE>
-6.405

>  <RMSD_LB>
3.331

>  <RMSD_UB>
4.801

$$$$
CHEMBL246648
 OpenBabel10162523423D

 28 29  0  0  0  0  0  0  0  0999 V2000
  143.4250  136.8340  148.4310 C   0  0  0  0  0  0  0  0  0  0  0  0
  144.2750  136.0560  147.2230 S   0  0  0  0  0  0  0  0  0  0  0  0
  143.2770  136.4010  149.7210 N   0  0  0  0  0  0  0  0  0  0  0  0
  143.9250  135.7540  150.0800 H   0  0  0  0  0  0  0  0  0  0  0  0
  142.1990  136.8580  150.5790 C   0  0  0  0  0  2  0  0  0  0  0  0
  144.4660  137.9780  153.4530 C   0  0  0  0  0  0  0  0  0  0  0  0
  144.0150  137.3200  152.2990 C   0  0  0  0  0  3  0  0  0  0  0  0
  142.6880  137.4780  151.8630 C   0  0  0  0  0  0  0  0  0  0  0  0
  141.8190  138.2890  152.6100 C   0  0  0  0  0  3  0  0  0  0  0  0
  142.2600  138.9350  153.7690 C   0  0  0  0  0  3  0  0  0  0  0  0
  143.5770  138.7680  154.1770 C   0  0  0  0  0  0  0  0  0  0  0  0
  146.3810  136.6840  153.9780 C   0  0  0  0  0  1  0  0  0  0  0  0
  145.7400  137.9380  153.9480 O   0  0  0  0  0  0  0  0  0  0  0  0
  144.0230  139.4020  155.3070 O   0  0  0  0  0  0  0  0  0  0  0  0
  144.4520  138.9120  155.9810 H   0  0  0  0  0  0  0  0  0  0  0  0
  142.7720  137.9830  148.1080 N   0  0  0  0  0  0  0  0  0  0  0  0
  141.7940  137.9130  148.0280 H   0  0  0  0  0  0  0  0  0  0  0  0
  143.3330  139.2990  147.8700 C   0  0  0  0  0  2  0  0  0  0  0  0
  144.3500  139.7680  148.8820 C   0  0  0  0  0  0  0  0  0  0  0  0
  145.7280  139.6030  148.7230 C   0  0  0  0  0  3  0  0  0  0  0  0
  146.6250  140.0700  149.6940 C   0  0  0  0  0  3  0  0  0  0  0  0
  146.1810  140.7010  150.8700 C   0  0  0  0  0  0  0  0  0  0  0  0
  144.7930  140.8580  151.0170 C   0  0  0  0  0  3  0  0  0  0  0  0
  143.8960  140.4020  150.0440 C   0  0  0  0  0  3  0  0  0  0  0  0
  147.1440  141.1800  151.9730 C   0  0  0  0  0  0  0  0  0  0  0  0
  146.4070  141.8200  153.1700 C   0  0  0  0  0  1  0  0  0  0  0  0
  148.0080  140.0220  152.5120 C   0  0  0  0  0  1  0  0  0  0  0  0
  148.1190  142.2330  151.4070 C   0  0  0  0  0  1  0  0  0  0  0  0
  1  3  1  0  0  0  0
  2  1  2  0  0  0  0
  3  4  1  0  0  0  0
  3  5  1  0  0  0  0
  5  8  1  0  0  0  0
  6 13  1  0  0  0  0
  6 11  1  0  0  0  0
  7  6  2  0  0  0  0
  8  7  1  0  0  0  0
  8  9  2  0  0  0  0
  9 10  1  0  0  0  0
 10 11  2  0  0  0  0
 11 14  1  0  0  0  0
 13 12  1  0  0  0  0
 14 15  1  0  0  0  0
 16  1  1  0  0  0  0
 17 16  1  0  0  0  0
 18 16  1  0  0  0  0
 18 19  1  0  0  0  0
 19 24  1  0  0  0  0
 20 19  2  0  0  0  0
 20 21  1  0  0  0  0
 21 22  2  0  0  0  0
 22 23  1  0  0  0  0
 22 25  1  0  0  0  0
 24 23  2  0  0  0  0
 25 27  1  0  0  0  0
 25 26  1  0  0  0  0
 28 25  1  0  0  0  0
M  END
>  <MODEL>
4

>  <REMARK>
 VINA RESULT:    -6.354      3.432      6.786
 INTER + INTRA:         -11.306
 INTER:                  -9.102
 INTRA:                  -2.204
 UNBOUND:                -1.794
  Name = CHEMBL246648
  13 active torsions:
  status: ('A' for Active; 'I' for Inactive)
    1  A    between atoms: C_1  and  O_2
    2  A    between atoms: O_2  and  C_3
    3  A    between atoms: C_5  and  C_6
    4  A    between atoms: C_6  and  N_7
    5  A    between atoms: N_7  and  C_8
    6  A    between atoms: C_8  and  N_10
    7  A    between atoms: N_10  and  C_11
    8  A    between atoms: C_11  and  C_12
    9  A    between atoms: C_15  and  C_16
   10  A    between atoms: C_16  and  C_17
   11  A    between atoms: C_16  and  C_18
   12  A    between atoms: C_16  and  C_19
   13  A    between atoms: C_24  and  O_25
                            x       y       z     vdW  Elec       q    Type
                         _______ _______ _______ _____ _____    ______ ____

>  <TORSDO>
F 9

>  <SCORE>
-6.354

>  <RMSD_LB>
3.432

>  <RMSD_UB>
6.786

$$$$
CHEMBL246648
 OpenBabel10162523423D

 28 29  0  0  0  0  0  0  0  0999 V2000
  144.8150  139.0250  150.2000 C   0  0  0  0  0  0  0  0  0  0  0  0
  143.6170  140.0230  149.6000 S   0  0  0  0  0  0  0  0  0  0  0  0
  146.1540  139.1240  149.9360 N   0  0  0  0  0  0  0  0  0  0  0  0
  146.6510  138.3080  149.6990 H   0  0  0  0  0  0  0  0  0  0  0  0
  146.8700  140.3850  149.9940 C   0  0  0  0  0  2  0  0  0  0  0  0
  147.4730  140.2990  153.7740 C   0  0  0  0  0  0  0  0  0  0  0  0
  146.9130  140.0390  152.5140 C   0  0  0  0  0  3  0  0  0  0  0  0
  147.3880  140.7080  151.3720 C   0  0  0  0  0  0  0  0  0  0  0  0
  148.4180  141.6510  151.5160 C   0  0  0  0  0  3  0  0  0  0  0  0
  148.9700  141.9240  152.7710 C   0  0  0  0  0  3  0  0  0  0  0  0
  148.4870  141.2470  153.8850 C   0  0  0  0  0  0  0  0  0  0  0  0
  146.5680  138.3920  154.8510 C   0  0  0  0  0  1  0  0  0  0  0  0
  147.1270  139.6820  154.9430 O   0  0  0  0  0  0  0  0  0  0  0  0
  149.0250  141.5010  155.1190 O   0  0  0  0  0  0  0  0  0  0  0  0
  149.4360  142.3250  155.2910 H   0  0  0  0  0  0  0  0  0  0  0  0
  144.4360  137.9830  150.9870 N   0  0  0  0  0  0  0  0  0  0  0  0
  144.6540  138.0660  151.9430 H   0  0  0  0  0  0  0  0  0  0  0  0
  143.7500  136.7660  150.5990 C   0  0  0  0  0  2  0  0  0  0  0  0
  142.2440  136.8530  150.5500 C   0  0  0  0  0  0  0  0  0  0  0  0
  141.4700  137.4040  151.5730 C   0  0  0  0  0  3  0  0  0  0  0  0
  140.0740  137.4670  151.4660 C   0  0  0  0  0  3  0  0  0  0  0  0
  139.3940  136.9620  150.3430 C   0  0  0  0  0  0  0  0  0  0  0  0
  140.1840  136.4080  149.3220 C   0  0  0  0  0  3  0  0  0  0  0  0
  141.5800  136.3540  149.4230 C   0  0  0  0  0  3  0  0  0  0  0  0
  137.8580  136.9760  150.2220 C   0  0  0  0  0  0  0  0  0  0  0  0
  137.3280  138.2400  149.5090 C   0  0  0  0  0  1  0  0  0  0  0  0
  137.3400  135.7450  149.4520 C   0  0  0  0  0  1  0  0  0  0  0  0
  137.2140  136.9260  151.6230 C   0  0  0  0  0  1  0  0  0  0  0  0
  1 16  1  0  0  0  0
  2  1  2  0  0  0  0
  3  5  1  0  0  0  0
  3  1  1  0  0  0  0
  4  3  1  0  0  0  0
  5  8  1  0  0  0  0
  6 11  1  0  0  0  0
  6 13  1  0  0  0  0
  7  6  2  0  0  0  0
  8  9  2  0  0  0  0
  8  7  1  0  0  0  0
  9 10  1  0  0  0  0
 10 11  2  0  0  0  0
 11 14  1  0  0  0  0
 12 13  1  0  0  0  0
 14 15  1  0  0  0  0
 16 17  1  0  0  0  0
 18 16  1  0  0  0  0
 19 18  1  0  0  0  0
 19 20  1  0  0  0  0
 21 20  2  0  0  0  0
 22 21  1  0  0  0  0
 23 24  1  0  0  0  0
 23 22  2  0  0  0  0
 24 19  2  0  0  0  0
 25 22  1  0  0  0  0
 25 28  1  0  0  0  0
 26 25  1  0  0  0  0
 27 25  1  0  0  0  0
M  END
>  <MODEL>
5

>  <REMARK>
 VINA RESULT:    -6.078      3.002      3.974
 INTER + INTRA:         -10.893
 INTER:                 -10.359
 INTRA:                  -0.533
 UNBOUND:                -1.794
  Name = CHEMBL246648
  13 active torsions:
  status: ('A' for Active; 'I' for Inactive)
    1  A    between atoms: C_1  and  O_2
    2  A    between atoms: O_2  and  C_3
    3  A    between atoms: C_5  and  C_6
    4  A    between atoms: C_6  and  N_7
    5  A    between atoms: N_7  and  C_8
    6  A    between atoms: C_8  and  N_10
    7  A    between atoms: N_10  and  C_11
    8  A    between atoms: C_11  and  C_12
    9  A    between atoms: C_15  and  C_16
   10  A    between atoms: C_16  and  C_17
   11  A    between atoms: C_16  and  C_18
   12  A    between atoms: C_16  and  C_19
   13  A    between atoms: C_24  and  O_25
                            x       y       z     vdW  Elec       q    Type
                         _______ _______ _______ _____ _____    ______ ____

>  <TORSDO>
F 9

>  <SCORE>
-6.078

>  <RMSD_LB>
3.002

>  <RMSD_UB>
3.974

$$$$
CHEMBL246648
 OpenBabel10162523423D

 28 29  0  0  0  0  0  0  0  0999 V2000
  145.7350  137.5940  154.1310 C   0  0  0  0  0  0  0  0  0  0  0  0
  146.4470  138.7330  155.1230 S   0  0  0  0  0  0  0  0  0  0  0  0
  144.4280  137.1910  154.1730 N   0  0  0  0  0  0  0  0  0  0  0  0
  144.2310  136.2430  154.3550 H   0  0  0  0  0  0  0  0  0  0  0  0
  143.3220  138.1050  153.9590 C   0  0  0  0  0  2  0  0  0  0  0  0
  142.0420  137.6640  150.3780 C   0  0  0  0  0  0  0  0  0  0  0  0
  142.3800  137.3810  151.7100 C   0  0  0  0  0  3  0  0  0  0  0  0
  143.0280  138.3460  152.5010 C   0  0  0  0  0  0  0  0  0  0  0  0
  143.3450  139.5900  151.9310 C   0  0  0  0  0  3  0  0  0  0  0  0
  143.0230  139.8720  150.6010 C   0  0  0  0  0  3  0  0  0  0  0  0
  142.3790  138.9040  149.8400 C   0  0  0  0  0  0  0  0  0  0  0  0
  142.1140  135.7820  148.9400 C   0  0  0  0  0  1  0  0  0  0  0  0
  141.3750  136.8270  149.5290 O   0  0  0  0  0  0  0  0  0  0  0  0
  142.0520  139.1710  148.5360 O   0  0  0  0  0  0  0  0  0  0  0  0
  141.7130  138.4900  147.9890 H   0  0  0  0  0  0  0  0  0  0  0  0
  146.5260  136.9630  153.2210 N   0  0  0  0  0  0  0  0  0  0  0  0
  147.4700  136.8510  153.4780 H   0  0  0  0  0  0  0  0  0  0  0  0
  146.1560  136.4310  151.9250 C   0  0  0  0  0  2  0  0  0  0  0  0
  146.2020  137.4130  150.7790 C   0  0  0  0  0  0  0  0  0  0  0  0
  146.7910  138.6770  150.8700 C   0  0  0  0  0  3  0  0  0  0  0  0
  146.8120  139.5420  149.7680 C   0  0  0  0  0  3  0  0  0  0  0  0
  146.2290  139.1880  148.5380 C   0  0  0  0  0  0  0  0  0  0  0  0
  145.6390  137.9160  148.4610 C   0  0  0  0  0  3  0  0  0  0  0  0
  145.6260  137.0460  149.5580 C   0  0  0  0  0  3  0  0  0  0  0  0
  146.1980  140.1400  147.3260 C   0  0  0  0  0  0  0  0  0  0  0  0
  146.5320  141.6000  147.7060 C   0  0  0  0  0  1  0  0  0  0  0  0
  147.1890  139.6960  146.2320 C   0  0  0  0  0  1  0  0  0  0  0  0
  144.7960  140.1350  146.6820 C   0  0  0  0  0  1  0  0  0  0  0  0
  1  3  1  0  0  0  0
  1  2  2  0  0  0  0
  3  4  1  0  0  0  0
  5  3  1  0  0  0  0
  6  7  1  0  0  0  0
  7  8  2  0  0  0  0
  8  5  1  0  0  0  0
  9  8  1  0  0  0  0
 10  9  2  0  0  0  0
 11  6  2  0  0  0  0
 11 10  1  0  0  0  0
 12 13  1  0  0  0  0
 13  6  1  0  0  0  0
 14 11  1  0  0  0  0
 15 14  1  0  0  0  0
 16 17  1  0  0  0  0
 16  1  1  0  0  0  0
 18 16  1  0  0  0  0
 19 20  1  0  0  0  0
 19 18  1  0  0  0  0
 21 20  2  0  0  0  0
 22 21  1  0  0  0  0
 23 22  2  0  0  0  0
 23 24  1  0  0  0  0
 24 19  2  0  0  0  0
 25 26  1  0  0  0  0
 25 22  1  0  0  0  0
 27 25  1  0  0  0  0
 28 25  1  0  0  0  0
M  END
>  <MODEL>
6

>  <REMARK>
 VINA RESULT:    -5.888      2.562      5.357
 INTER + INTRA:         -10.609
 INTER:                  -8.001
 INTRA:                  -2.608
 UNBOUND:                -1.794
  Name = CHEMBL246648
  13 active torsions:
  status: ('A' for Active; 'I' for Inactive)
    1  A    between atoms: C_1  and  O_2
    2  A    between atoms: O_2  and  C_3
    3  A    between atoms: C_5  and  C_6
    4  A    between atoms: C_6  and  N_7
    5  A    between atoms: N_7  and  C_8
    6  A    between atoms: C_8  and  N_10
    7  A    between atoms: N_10  and  C_11
    8  A    between atoms: C_11  and  C_12
    9  A    between atoms: C_15  and  C_16
   10  A    between atoms: C_16  and  C_17
   11  A    between atoms: C_16  and  C_18
   12  A    between atoms: C_16  and  C_19
   13  A    between atoms: C_24  and  O_25
                            x       y       z     vdW  Elec       q    Type
                         _______ _______ _______ _____ _____    ______ ____

>  <TORSDO>
F 9

>  <SCORE>
-5.888

>  <RMSD_LB>
2.562

>  <RMSD_UB>
5.357

$$$$
CHEMBL246648
 OpenBabel10162523423D

 28 29  0  0  0  0  0  0  0  0999 V2000
  144.4470  139.0930  150.1890 C   0  0  0  0  0  0  0  0  0  0  0  0
  143.4920  139.8240  149.0320 S   0  0  0  0  0  0  0  0  0  0  0  0
  145.7990  139.2480  150.3350 N   0  0  0  0  0  0  0  0  0  0  0  0
  146.1990  140.1240  150.1320 H   0  0  0  0  0  0  0  0  0  0  0  0
  146.6650  138.1700  150.7770 C   0  0  0  0  0  2  0  0  0  0  0  0
  148.2180  139.5290  154.0020 C   0  0  0  0  0  0  0  0  0  0  0  0
  147.9040  139.3760  152.6430 C   0  0  0  0  0  3  0  0  0  0  0  0
  147.0950  138.3090  152.2150 C   0  0  0  0  0  0  0  0  0  0  0  0
  146.6230  137.3910  153.1660 C   0  0  0  0  0  3  0  0  0  0  0  0
  146.9450  137.5300  154.5190 C   0  0  0  0  0  3  0  0  0  0  0  0
  147.7420  138.5960  154.9200 C   0  0  0  0  0  0  0  0  0  0  0  0
  148.4450  141.8530  154.4080 C   0  0  0  0  0  1  0  0  0  0  0  0
  148.9550  140.5460  154.5410 O   0  0  0  0  0  0  0  0  0  0  0  0
  148.0590  138.7470  156.2440 O   0  0  0  0  0  0  0  0  0  0  0  0
  148.0580  138.0020  156.8130 H   0  0  0  0  0  0  0  0  0  0  0  0
  143.8500  138.2210  151.0460 N   0  0  0  0  0  0  0  0  0  0  0  0
  143.6810  138.5600  151.9540 H   0  0  0  0  0  0  0  0  0  0  0  0
  143.4280  136.8570  150.7910 C   0  0  0  0  0  2  0  0  0  0  0  0
  142.0080  136.6930  150.3060 C   0  0  0  0  0  0  0  0  0  0  0  0
  140.9040  137.2580  150.9490 C   0  0  0  0  0  3  0  0  0  0  0  0
  139.6080  137.0790  150.4460 C   0  0  0  0  0  3  0  0  0  0  0  0
  139.3620  136.3120  149.2930 C   0  0  0  0  0  0  0  0  0  0  0  0
  140.4800  135.7470  148.6580 C   0  0  0  0  0  3  0  0  0  0  0  0
  141.7770  135.9340  149.1540 C   0  0  0  0  0  3  0  0  0  0  0  0
  137.9430  136.0610  148.7460 C   0  0  0  0  0  0  0  0  0  0  0  0
  137.4720  137.1720  147.7800 C   0  0  0  0  0  1  0  0  0  0  0  0
  137.8540  134.7150  148.0000 C   0  0  0  0  0  1  0  0  0  0  0  0
  136.9300  135.9920  149.9070 C   0  0  0  0  0  1  0  0  0  0  0  0
  1  3  1  0  0  0  0
  1 16  1  0  0  0  0
  2  1  2  0  0  0  0
  3  5  1  0  0  0  0
  4  3  1  0  0  0  0
  5  8  1  0  0  0  0
  6 13  1  0  0  0  0
  6 11  1  0  0  0  0
  7  6  2  0  0  0  0
  8  7  1  0  0  0  0
  8  9  2  0  0  0  0
  9 10  1  0  0  0  0
 10 11  2  0  0  0  0
 11 14  1  0  0  0  0
 12 13  1  0  0  0  0
 14 15  1  0  0  0  0
 16 17  1  0  0  0  0
 18 16  1  0  0  0  0
 19 18  1  0  0  0  0
 19 20  1  0  0  0  0
 21 20  2  0  0  0  0
 22 21  1  0  0  0  0
 23 24  1  0  0  0  0
 23 22  2  0  0  0  0
 24 19  2  0  0  0  0
 25 22  1  0  0  0  0
 25 28  1  0  0  0  0
 26 25  1  0  0  0  0
 27 25  1  0  0  0  0
M  END
>  <MODEL>
7

>  <REMARK>
 VINA RESULT:    -5.479      3.420      4.869
 INTER + INTRA:          -9.996
 INTER:                  -9.246
 INTRA:                  -0.750
 UNBOUND:                -1.794
  Name = CHEMBL246648
  13 active torsions:
  status: ('A' for Active; 'I' for Inactive)
    1  A    between atoms: C_1  and  O_2
    2  A    between atoms: O_2  and  C_3
    3  A    between atoms: C_5  and  C_6
    4  A    between atoms: C_6  and  N_7
    5  A    between atoms: N_7  and  C_8
    6  A    between atoms: C_8  and  N_10
    7  A    between atoms: N_10  and  C_11
    8  A    between atoms: C_11  and  C_12
    9  A    between atoms: C_15  and  C_16
   10  A    between atoms: C_16  and  C_17
   11  A    between atoms: C_16  and  C_18
   12  A    between atoms: C_16  and  C_19
   13  A    between atoms: C_24  and  O_25
                            x       y       z     vdW  Elec       q    Type
                         _______ _______ _______ _____ _____    ______ ____

>  <TORSDO>
F 9

>  <SCORE>
-5.479

>  <RMSD_LB>
3.420

>  <RMSD_UB>
4.869

$$$$
CHEMBL246648
 OpenBabel10162523423D

 28 29  0  0  0  0  0  0  0  0999 V2000
  151.5840  136.5810  142.1010 C   0  0  0  0  0  0  0  0  0  0  0  0
  151.4340  137.0290  140.5000 S   0  0  0  0  0  0  0  0  0  0  0  0
  151.0600  135.4560  142.6770 N   0  0  0  0  0  0  0  0  0  0  0  0
  151.6750  134.7470  142.9750 H   0  0  0  0  0  0  0  0  0  0  0  0
  149.6340  135.2660  142.8640 C   0  0  0  0  0  2  0  0  0  0  0  0
  149.9550  133.4240  146.2040 C   0  0  0  0  0  0  0  0  0  0  0  0
  150.2890  133.9960  144.9670 C   0  0  0  0  0  3  0  0  0  0  0  0
  149.2940  134.5640  144.1540 C   0  0  0  0  0  0  0  0  0  0  0  0
  147.9600  134.5350  144.5900 C   0  0  0  0  0  3  0  0  0  0  0  0
  147.6190  133.9530  145.8150 C   0  0  0  0  0  3  0  0  0  0  0  0
  148.6210  133.4010  146.6050 C   0  0  0  0  0  0  0  0  0  0  0  0
  151.6440  133.7770  147.8280 C   0  0  0  0  0  1  0  0  0  0  0  0
  150.8360  132.8830  147.0980 O   0  0  0  0  0  0  0  0  0  0  0  0
  148.3000  132.8350  147.8100 O   0  0  0  0  0  0  0  0  0  0  0  0
  147.4460  132.9620  148.1750 H   0  0  0  0  0  0  0  0  0  0  0  0
  152.2460  137.4270  142.9360 N   0  0  0  0  0  0  0  0  0  0  0  0
  153.1910  137.2080  143.1080 H   0  0  0  0  0  0  0  0  0  0  0  0
  151.7400  138.6100  143.6040 C   0  0  0  0  0  2  0  0  0  0  0  0
  150.5790  138.3840  144.5410 C   0  0  0  0  0  0  0  0  0  0  0  0
  149.3210  138.9660  144.3640 C   0  0  0  0  0  3  0  0  0  0  0  0
  148.2770  138.7100  145.2630 C   0  0  0  0  0  3  0  0  0  0  0  0
  148.4520  137.8820  146.3860 C   0  0  0  0  0  0  0  0  0  0  0  0
  149.7230  137.3070  146.5540 C   0  0  0  0  0  3  0  0  0  0  0  0
  150.7640  137.5520  145.6500 C   0  0  0  0  0  3  0  0  0  0  0  0
  147.3350  137.6240  147.4140 C   0  0  0  0  0  0  0  0  0  0  0  0
  146.0160  137.1580  146.7570 C   0  0  0  0  0  1  0  0  0  0  0  0
  147.7510  136.5580  148.4470 C   0  0  0  0  0  1  0  0  0  0  0  0
  147.0320  138.9130  148.2060 C   0  0  0  0  0  1  0  0  0  0  0  0
  1  3  1  0  0  0  0
  1 16  1  0  0  0  0
  2  1  2  0  0  0  0
  3  5  1  0  0  0  0
  3  4  1  0  0  0  0
  5  8  1  0  0  0  0
  6 11  1  0  0  0  0
  6 13  1  0  0  0  0
  7  6  2  0  0  0  0
  8  9  2  0  0  0  0
  8  7  1  0  0  0  0
  9 10  1  0  0  0  0
 10 11  2  0  0  0  0
 11 14  1  0  0  0  0
 13 12  1  0  0  0  0
 14 15  1  0  0  0  0
 16 17  1  0  0  0  0
 16 18  1  0  0  0  0
 18 19  1  0  0  0  0
 19 24  1  0  0  0  0
 20 19  2  0  0  0  0
 20 21  1  0  0  0  0
 21 22  2  0  0  0  0
 22 23  1  0  0  0  0
 22 25  1  0  0  0  0
 24 23  2  0  0  0  0
 25 28  1  0  0  0  0
 25 27  1  0  0  0  0
 26 25  1  0  0  0  0
M  END
>  <MODEL>
8

>  <REMARK>
 VINA RESULT:    -5.139      9.060     11.029
 INTER + INTRA:          -9.488
 INTER:                  -6.855
 INTRA:                  -2.632
 UNBOUND:                -1.794
  Name = CHEMBL246648
  13 active torsions:
  status: ('A' for Active; 'I' for Inactive)
    1  A    between atoms: C_1  and  O_2
    2  A    between atoms: O_2  and  C_3
    3  A    between atoms: C_5  and  C_6
    4  A    between atoms: C_6  and  N_7
    5  A    between atoms: N_7  and  C_8
    6  A    between atoms: C_8  and  N_10
    7  A    between atoms: N_10  and  C_11
    8  A    between atoms: C_11  and  C_12
    9  A    between atoms: C_15  and  C_16
   10  A    between atoms: C_16  and  C_17
   11  A    between atoms: C_16  and  C_18
   12  A    between atoms: C_16  and  C_19
   13  A    between atoms: C_24  and  O_25
                            x       y       z     vdW  Elec       q    Type
                         _______ _______ _______ _____ _____    ______ ____

>  <TORSDO>
F 9

>  <SCORE>
-5.139

>  <RMSD_LB>
9.060

>  <RMSD_UB>
11.029

$$$$
CHEMBL246648
 OpenBabel10162523423D

 28 29  0  0  0  0  0  0  0  0999 V2000
  146.9930  137.4750  154.0230 C   0  0  0  0  0  0  0  0  0  0  0  0
  147.7550  137.8170  155.4690 S   0  0  0  0  0  0  0  0  0  0  0  0
  145.8340  136.7630  153.8710 N   0  0  0  0  0  0  0  0  0  0  0  0
  145.8920  135.8120  153.6260 H   0  0  0  0  0  0  0  0  0  0  0  0
  144.5230  137.3570  154.0560 C   0  0  0  0  0  2  0  0  0  0  0  0
  142.6480  138.0850  150.7980 C   0  0  0  0  0  0  0  0  0  0  0  0
  143.1820  137.3910  151.8940 C   0  0  0  0  0  3  0  0  0  0  0  0
  144.0080  138.0510  152.8200 C   0  0  0  0  0  0  0  0  0  0  0  0
  144.3030  139.4090  152.6210 C   0  0  0  0  0  3  0  0  0  0  0  0
  143.7850  140.1020  151.5230 C   0  0  0  0  0  3  0  0  0  0  0  0
  142.9670  139.4290  150.6230 C   0  0  0  0  0  0  0  0  0  0  0  0
  140.5170  137.1790  150.2940 C   0  0  0  0  0  1  0  0  0  0  0  0
  141.8010  137.5650  149.8610 O   0  0  0  0  0  0  0  0  0  0  0  0
  142.4470  140.0990  149.5470 O   0  0  0  0  0  0  0  0  0  0  0  0
  143.0190  140.5300  148.9420 H   0  0  0  0  0  0  0  0  0  0  0  0
  147.5910  137.8950  152.8760 N   0  0  0  0  0  0  0  0  0  0  0  0
  147.5380  138.8610  152.6940 H   0  0  0  0  0  0  0  0  0  0  0  0
  148.2980  137.1040  151.8890 C   0  0  0  0  0  2  0  0  0  0  0  0
  147.4760  136.6430  150.7100 C   0  0  0  0  0  0  0  0  0  0  0  0
  147.6530  135.4080  150.0820 C   0  0  0  0  0  3  0  0  0  0  0  0
  146.8520  135.0310  148.9960 C   0  0  0  0  0  3  0  0  0  0  0  0
  145.8550  135.8800  148.4810 C   0  0  0  0  0  0  0  0  0  0  0  0
  145.6900  137.1200  149.1200 C   0  0  0  0  0  3  0  0  0  0  0  0
  146.4830  137.4940  150.2120 C   0  0  0  0  0  3  0  0  0  0  0  0
  144.9930  135.5080  147.2590 C   0  0  0  0  0  0  0  0  0  0  0  0
  145.7540  134.6350  146.2360 C   0  0  0  0  0  1  0  0  0  0  0  0
  143.7190  134.7460  147.6770 C   0  0  0  0  0  1  0  0  0  0  0  0
  144.5270  136.7840  146.5290 C   0  0  0  0  0  1  0  0  0  0  0  0
  1  2  2  0  0  0  0
  3  1  1  0  0  0  0
  3  5  1  0  0  0  0
  4  3  1  0  0  0  0
  6  7  1  0  0  0  0
  7  8  2  0  0  0  0
  8  5  1  0  0  0  0
  9  8  1  0  0  0  0
 10  9  2  0  0  0  0
 11  6  2  0  0  0  0
 11 10  1  0  0  0  0
 13 12  1  0  0  0  0
 13  6  1  0  0  0  0
 14 11  1  0  0  0  0
 15 14  1  0  0  0  0
 16  1  1  0  0  0  0
 17 16  1  0  0  0  0
 18 16  1  0  0  0  0
 19 18  1  0  0  0  0
 20 19  2  0  0  0  0
 21 20  1  0  0  0  0
 22 21  2  0  0  0  0
 22 23  1  0  0  0  0
 23 24  2  0  0  0  0
 24 19  1  0  0  0  0
 25 27  1  0  0  0  0
 25 22  1  0  0  0  0
 26 25  1  0  0  0  0
 28 25  1  0  0  0  0
M  END
>  <MODEL>
9

>  <REMARK>
 VINA RESULT:    -5.004      3.240      5.105
 INTER + INTRA:          -9.286
 INTER:                  -7.491
 INTRA:                  -1.794
 UNBOUND:                -1.794
  Name = CHEMBL246648
  13 active torsions:
  status: ('A' for Active; 'I' for Inactive)
    1  A    between atoms: C_1  and  O_2
    2  A    between atoms: O_2  and  C_3
    3  A    between atoms: C_5  and  C_6
    4  A    between atoms: C_6  and  N_7
    5  A    between atoms: N_7  and  C_8
    6  A    between atoms: C_8  and  N_10
    7  A    between atoms: N_10  and  C_11
    8  A    between atoms: C_11  and  C_12
    9  A    between atoms: C_15  and  C_16
   10  A    between atoms: C_16  and  C_17
   11  A    between atoms: C_16  and  C_18
   12  A    between atoms: C_16  and  C_19
   13  A    between atoms: C_24  and  O_25
                            x       y       z     vdW  Elec       q    Type
                         _______ _______ _______ _____ _____    ______ ____

>  <TORSDO>
F 9

>  <SCORE>
-5.004

>  <RMSD_LB>
3.240

>  <RMSD_UB>
5.105

$$$$
