CHEMBL190051
 OpenBabel10172500143D

 25 25  0  0  0  0  0  0  0  0999 V2000
  143.8800  137.2870  152.5010 C   0  0  0  0  0  2  0  0  0  0  0  0
  140.1690  137.5370  151.6280 C   0  0  0  0  0  0  0  0  0  0  0  0
  141.5550  137.3390  151.5380 C   0  0  0  0  0  3  0  0  0  0  0  0
  142.4080  137.5860  152.6260 C   0  0  0  0  0  0  0  0  0  0  0  0
  141.8610  138.0600  153.8300 C   0  0  0  0  0  3  0  0  0  0  0  0
  140.4870  138.2820  153.9390 C   0  0  0  0  0  0  0  0  0  0  0  0
  139.6580  138.0320  152.8330 C   0  0  0  0  0  0  0  0  0  0  0  0
  139.7020  136.8370  149.2760 C   0  0  0  0  0  2  0  0  0  0  0  0
  139.2880  137.2670  150.4780 C   0  0  0  0  0  3  0  0  0  0  0  0
  139.8470  138.7720  155.0520 O   0  0  0  0  0  0  0  0  0  0  0  0
  139.6560  137.8440  156.1160 C   0  0  0  0  0  1  0  0  0  0  0  0
  138.3070  138.2590  152.9640 O   0  0  0  0  0  0  0  0  0  0  0  0
  137.7720  138.3510  152.2000 H   0  0  0  0  0  0  0  0  0  0  0  0
  144.6480  138.4750  152.2150 N   0  0  0  0  0  0  0  0  0  0  0  0
  145.0120  138.8110  150.9330 C   0  0  0  0  0  0  0  0  0  0  0  0
  144.7300  138.1340  149.9470 O   0  0  0  0  0  0  0  0  0  0  0  0
  144.9200  139.0600  152.9580 H   0  0  0  0  0  0  0  0  0  0  0  0
  145.7980  140.0990  150.8180 C   0  0  0  0  0  2  0  0  0  0  0  0
  145.1290  141.2720  151.5280 C   0  0  0  0  0  2  0  0  0  0  0  0
  146.1420  142.2940  152.0490 C   0  0  0  0  0  2  0  0  0  0  0  0
  147.4870  142.1240  151.3480 C   0  0  0  0  0  2  0  0  0  0  0  0
  148.6270  142.0020  152.3550 C   0  0  0  0  0  2  0  0  0  0  0  0
  148.0800  141.8290  153.7700 C   0  0  0  0  0  2  0  0  0  0  0  0
  148.4470  140.4650  154.3450 C   0  0  0  0  0  2  0  0  0  0  0  0
  147.2090  139.6120  154.5630 C   0  0  0  0  0  1  0  0  0  0  0  0
  1  4  1  0  0  0  0
  2  7  1  0  0  0  0
  3  2  2  0  0  0  0
  3  4  1  0  0  0  0
  4  5  2  0  0  0  0
  5  6  1  0  0  0  0
  6 10  1  0  0  0  0
  7 12  1  0  0  0  0
  7  6  2  0  0  0  0
  8  9  2  0  0  0  0
  9  2  1  0  0  0  0
 10 11  1  0  0  0  0
 13 12  1  0  0  0  0
 14  1  1  0  0  0  0
 14 17  1  0  0  0  0
 15 14  1  0  0  0  0
 16 15  2  0  0  0  0
 18 15  1  0  0  0  0
 18 19  1  0  0  0  0
 19 20  1  0  0  0  0
 21 20  1  0  0  0  0
 21 22  1  0  0  0  0
 22 23  1  0  0  0  0
 23 24  1  0  0  0  0
 24 25  1  0  0  0  0
M  END
>  <MODEL>
1

>  <REMARK>
 VINA RESULT:    -6.094      0.000      0.000
 INTER + INTRA:         -11.738
 INTER:                 -10.380
 INTRA:                  -1.357
 UNBOUND:                -1.546
  Name = CHEMBL190051
  14 active torsions:
  status: ('A' for Active; 'I' for Inactive)
    1  A    between atoms: C_2  and  C_3
    2  A    between atoms: C_5  and  C_6
    3  A    between atoms: C_6  and  N_7
    4  A    between atoms: C_8  and  C_10
    5  A    between atoms: C_10  and  C_11
    6  A    between atoms: C_11  and  C_12
    7  A    between atoms: C_12  and  C_13
    8  A    between atoms: C_13  and  C_14
    9  A    between atoms: C_14  and  C_15
   10  A    between atoms: C_15  and  C_16
   11  A    between atoms: C_16  and  C_17
   12  A    between atoms: C_19  and  O_20
   13  A    between atoms: O_20  and  C_21
   14  A    between atoms: C_22  and  O_23
                            x       y       z     vdW  Elec       q    Type
                         _______ _______ _______ _____ _____    ______ ____

>  <TORSDO>
F 12

>  <SCORE>
-6.094

>  <RMSD_LB>
0.000

>  <RMSD_UB>
0.000

$$$$
CHEMBL190051
 OpenBabel10172500143D

 25 25  0  0  0  0  0  0  0  0999 V2000
  138.5840  138.4740  154.2350 C   0  0  0  0  0  2  0  0  0  0  0  0
  136.0550  135.8070  155.2780 C   0  0  0  0  0  0  0  0  0  0  0  0
  136.8480  136.6720  154.5090 C   0  0  0  0  0  3  0  0  0  0  0  0
  137.6980  137.6180  155.1040 C   0  0  0  0  0  0  0  0  0  0  0  0
  137.7420  137.7140  156.5050 C   0  0  0  0  0  3  0  0  0  0  0  0
  136.9480  136.8760  157.2920 C   0  0  0  0  0  0  0  0  0  0  0  0
  136.1030  135.9430  156.6700 C   0  0  0  0  0  0  0  0  0  0  0  0
  133.9040  135.0400  154.2660 C   0  0  0  0  0  2  0  0  0  0  0  0
  135.1740  134.8150  154.6370 C   0  0  0  0  0  3  0  0  0  0  0  0
  136.8850  136.9010  158.6650 O   0  0  0  0  0  0  0  0  0  0  0  0
  136.2470  138.0410  159.2340 C   0  0  0  0  0  1  0  0  0  0  0  0
  135.3300  135.1280  157.4670 O   0  0  0  0  0  0  0  0  0  0  0  0
  134.4290  135.3380  157.6150 H   0  0  0  0  0  0  0  0  0  0  0  0
  138.4330  138.1570  152.8350 N   0  0  0  0  0  0  0  0  0  0  0  0
  139.4970  137.7530  152.0660 C   0  0  0  0  0  0  0  0  0  0  0  0
  140.6430  137.6450  152.4940 O   0  0  0  0  0  0  0  0  0  0  0  0
  137.5440  138.2320  152.4210 H   0  0  0  0  0  0  0  0  0  0  0  0
  139.1510  137.4450  150.6240 C   0  0  0  0  0  2  0  0  0  0  0  0
  137.6750  137.1150  150.4230 C   0  0  0  0  0  2  0  0  0  0  0  0
  137.4500  135.6470  150.0550 C   0  0  0  0  0  2  0  0  0  0  0  0
  136.3600  135.0330  150.9290 C   0  0  0  0  0  2  0  0  0  0  0  0
  135.1660  135.9740  151.0700 C   0  0  0  0  0  2  0  0  0  0  0  0
  133.8960  135.3150  150.5380 C   0  0  0  0  0  2  0  0  0  0  0  0
  132.7520  136.3200  150.4260 C   0  0  0  0  0  2  0  0  0  0  0  0
  132.7480  136.9940  149.0640 C   0  0  0  0  0  1  0  0  0  0  0  0
  1  4  1  0  0  0  0
  2  7  1  0  0  0  0
  3  4  1  0  0  0  0
  3  2  2  0  0  0  0
  4  5  2  0  0  0  0
  5  6  1  0  0  0  0
  6 10  1  0  0  0  0
  7  6  2  0  0  0  0
  7 12  1  0  0  0  0
  8  9  2  0  0  0  0
  9  2  1  0  0  0  0
 10 11  1  0  0  0  0
 12 13  1  0  0  0  0
 14  1  1  0  0  0  0
 15 16  2  0  0  0  0
 15 14  1  0  0  0  0
 17 14  1  0  0  0  0
 18 15  1  0  0  0  0
 19 18  1  0  0  0  0
 20 19  1  0  0  0  0
 20 21  1  0  0  0  0
 21 22  1  0  0  0  0
 23 22  1  0  0  0  0
 24 23  1  0  0  0  0
 25 24  1  0  0  0  0
M  END
>  <MODEL>
2

>  <REMARK>
 VINA RESULT:    -5.999      5.745      9.117
 INTER + INTRA:         -11.579
 INTER:                  -9.874
 INTRA:                  -1.705
 UNBOUND:                -1.546
  Name = CHEMBL190051
  14 active torsions:
  status: ('A' for Active; 'I' for Inactive)
    1  A    between atoms: C_2  and  C_3
    2  A    between atoms: C_5  and  C_6
    3  A    between atoms: C_6  and  N_7
    4  A    between atoms: C_8  and  C_10
    5  A    between atoms: C_10  and  C_11
    6  A    between atoms: C_11  and  C_12
    7  A    between atoms: C_12  and  C_13
    8  A    between atoms: C_13  and  C_14
    9  A    between atoms: C_14  and  C_15
   10  A    between atoms: C_15  and  C_16
   11  A    between atoms: C_16  and  C_17
   12  A    between atoms: C_19  and  O_20
   13  A    between atoms: O_20  and  C_21
   14  A    between atoms: C_22  and  O_23
                            x       y       z     vdW  Elec       q    Type
                         _______ _______ _______ _____ _____    ______ ____

>  <TORSDO>
F 12

>  <SCORE>
-5.999

>  <RMSD_LB>
5.745

>  <RMSD_UB>
9.117

$$$$
CHEMBL190051
 OpenBabel10172500143D

 25 25  0  0  0  0  0  0  0  0999 V2000
  139.1940  138.8420  154.1780 C   0  0  0  0  0  2  0  0  0  0  0  0
  141.1410  137.2870  151.2820 C   0  0  0  0  0  0  0  0  0  0  0  0
  140.8200  137.9300  152.4870 C   0  0  0  0  0  3  0  0  0  0  0  0
  139.4910  138.2170  152.8390 C   0  0  0  0  0  0  0  0  0  0  0  0
  138.4580  137.8680  151.9530 C   0  0  0  0  0  3  0  0  0  0  0  0
  138.7530  137.2440  150.7400 C   0  0  0  0  0  0  0  0  0  0  0  0
  140.0910  136.9740  150.4110 C   0  0  0  0  0  0  0  0  0  0  0  0
  143.6060  137.3070  151.6810 C   0  0  0  0  0  2  0  0  0  0  0  0
  142.5400  136.9880  150.9310 C   0  0  0  0  0  3  0  0  0  0  0  0
  137.8310  136.8870  149.7850 O   0  0  0  0  0  0  0  0  0  0  0  0
  137.1930  137.9650  149.1070 C   0  0  0  0  0  1  0  0  0  0  0  0
  140.3580  136.3580  149.2090 O   0  0  0  0  0  0  0  0  0  0  0  0
  140.0900  135.4720  149.0680 H   0  0  0  0  0  0  0  0  0  0  0  0
  138.8410  137.8530  155.1680 N   0  0  0  0  0  0  0  0  0  0  0  0
  137.7060  137.9680  155.9330 C   0  0  0  0  0  0  0  0  0  0  0  0
  136.9220  138.9100  155.8490 O   0  0  0  0  0  0  0  0  0  0  0  0
  139.4300  137.0760  155.2980 H   0  0  0  0  0  0  0  0  0  0  0  0
  137.4850  136.8290  156.9060 C   0  0  0  0  0  2  0  0  0  0  0  0
  136.1570  136.1090  156.6910 C   0  0  0  0  0  2  0  0  0  0  0  0
  136.0260  135.5390  155.2770 C   0  0  0  0  0  2  0  0  0  0  0  0
  134.6920  134.8170  155.1090 C   0  0  0  0  0  2  0  0  0  0  0  0
  134.5570  134.2150  153.7120 C   0  0  0  0  0  2  0  0  0  0  0  0
  134.0740  135.2670  152.7180 C   0  0  0  0  0  2  0  0  0  0  0  0
  134.9770  135.3280  151.4890 C   0  0  0  0  0  2  0  0  0  0  0  0
  136.1500  134.3730  151.6240 C   0  0  0  0  0  1  0  0  0  0  0  0
  1 14  1  0  0  0  0
  2  3  1  0  0  0  0
  3  4  2  0  0  0  0
  4  1  1  0  0  0  0
  5  4  1  0  0  0  0
  6  5  2  0  0  0  0
  7  6  1  0  0  0  0
  7  2  2  0  0  0  0
  9  2  1  0  0  0  0
  9  8  2  0  0  0  0
 10  6  1  0  0  0  0
 11 10  1  0  0  0  0
 12  7  1  0  0  0  0
 13 12  1  0  0  0  0
 14 17  1  0  0  0  0
 14 15  1  0  0  0  0
 15 18  1  0  0  0  0
 16 15  2  0  0  0  0
 19 18  1  0  0  0  0
 20 19  1  0  0  0  0
 21 20  1  0  0  0  0
 22 21  1  0  0  0  0
 23 22  1  0  0  0  0
 24 25  1  0  0  0  0
 24 23  1  0  0  0  0
M  END
>  <MODEL>
3

>  <REMARK>
 VINA RESULT:    -5.966      3.991      9.217
 INTER + INTRA:         -11.522
 INTER:                 -10.222
 INTRA:                  -1.301
 UNBOUND:                -1.546
  Name = CHEMBL190051
  14 active torsions:
  status: ('A' for Active; 'I' for Inactive)
    1  A    between atoms: C_2  and  C_3
    2  A    between atoms: C_5  and  C_6
    3  A    between atoms: C_6  and  N_7
    4  A    between atoms: C_8  and  C_10
    5  A    between atoms: C_10  and  C_11
    6  A    between atoms: C_11  and  C_12
    7  A    between atoms: C_12  and  C_13
    8  A    between atoms: C_13  and  C_14
    9  A    between atoms: C_14  and  C_15
   10  A    between atoms: C_15  and  C_16
   11  A    between atoms: C_16  and  C_17
   12  A    between atoms: C_19  and  O_20
   13  A    between atoms: O_20  and  C_21
   14  A    between atoms: C_22  and  O_23
                            x       y       z     vdW  Elec       q    Type
                         _______ _______ _______ _____ _____    ______ ____

>  <TORSDO>
F 12

>  <SCORE>
-5.966

>  <RMSD_LB>
3.991

>  <RMSD_UB>
9.217

$$$$
CHEMBL190051
 OpenBabel10172500143D

 25 25  0  0  0  0  0  0  0  0999 V2000
  134.7350  134.6260  154.8360 C   0  0  0  0  0  2  0  0  0  0  0  0
  137.3120  137.3750  155.4660 C   0  0  0  0  0  0  0  0  0  0  0  0
  136.4660  136.4540  154.8310 C   0  0  0  0  0  3  0  0  0  0  0  0
  135.6830  135.5450  155.5630 C   0  0  0  0  0  0  0  0  0  0  0  0
  135.7630  135.5480  156.9660 C   0  0  0  0  0  3  0  0  0  0  0  0
  136.6120  136.4430  157.6200 C   0  0  0  0  0  0  0  0  0  0  0  0
  137.3870  137.3360  156.8640 C   0  0  0  0  0  0  0  0  0  0  0  0
  139.3860  138.1160  154.2880 C   0  0  0  0  0  2  0  0  0  0  0  0
  138.1210  138.3260  154.6840 C   0  0  0  0  0  3  0  0  0  0  0  0
  136.7950  136.5140  158.9800 O   0  0  0  0  0  0  0  0  0  0  0  0
  135.6740  136.9640  159.7340 C   0  0  0  0  0  1  0  0  0  0  0  0
  138.2170  138.2090  157.5300 O   0  0  0  0  0  0  0  0  0  0  0  0
  139.1390  138.0480  157.5590 H   0  0  0  0  0  0  0  0  0  0  0  0
  135.1840  134.3390  153.4950 N   0  0  0  0  0  0  0  0  0  0  0  0
  134.3550  134.4790  152.4090 C   0  0  0  0  0  0  0  0  0  0  0  0
  133.1830  134.8370  152.4900 O   0  0  0  0  0  0  0  0  0  0  0  0
  136.1100  134.0360  153.3550 H   0  0  0  0  0  0  0  0  0  0  0  0
  135.0000  134.1530  151.0780 C   0  0  0  0  0  2  0  0  0  0  0  0
  136.4230  134.6910  150.9570 C   0  0  0  0  0  2  0  0  0  0  0  0
  136.4570  136.1580  150.5250 C   0  0  0  0  0  2  0  0  0  0  0  0
  137.3870  136.9640  151.4270 C   0  0  0  0  0  2  0  0  0  0  0  0
  138.3150  137.8590  150.6100 C   0  0  0  0  0  2  0  0  0  0  0  0
  139.6840  137.2040  150.4410 C   0  0  0  0  0  2  0  0  0  0  0  0
  139.9770  136.8980  148.9750 C   0  0  0  0  0  2  0  0  0  0  0  0
  139.6190  135.4610  148.6340 C   0  0  0  0  0  1  0  0  0  0  0  0
  1  4  1  0  0  0  0
  2  7  1  0  0  0  0
  3  2  2  0  0  0  0
  3  4  1  0  0  0  0
  4  5  2  0  0  0  0
  5  6  1  0  0  0  0
  6 10  1  0  0  0  0
  7 12  1  0  0  0  0
  7  6  2  0  0  0  0
  8  9  2  0  0  0  0
  9  2  1  0  0  0  0
 10 11  1  0  0  0  0
 12 13  1  0  0  0  0
 14  1  1  0  0  0  0
 15 16  2  0  0  0  0
 15 14  1  0  0  0  0
 17 14  1  0  0  0  0
 18 15  1  0  0  0  0
 19 18  1  0  0  0  0
 20 19  1  0  0  0  0
 20 21  1  0  0  0  0
 22 21  1  0  0  0  0
 23 22  1  0  0  0  0
 24 23  1  0  0  0  0
 25 24  1  0  0  0  0
M  END
>  <MODEL>
4

>  <REMARK>
 VINA RESULT:    -5.898      6.311      8.918
 INTER + INTRA:         -11.409
 INTER:                  -9.673
 INTRA:                  -1.737
 UNBOUND:                -1.546
  Name = CHEMBL190051
  14 active torsions:
  status: ('A' for Active; 'I' for Inactive)
    1  A    between atoms: C_2  and  C_3
    2  A    between atoms: C_5  and  C_6
    3  A    between atoms: C_6  and  N_7
    4  A    between atoms: C_8  and  C_10
    5  A    between atoms: C_10  and  C_11
    6  A    between atoms: C_11  and  C_12
    7  A    between atoms: C_12  and  C_13
    8  A    between atoms: C_13  and  C_14
    9  A    between atoms: C_14  and  C_15
   10  A    between atoms: C_15  and  C_16
   11  A    between atoms: C_16  and  C_17
   12  A    between atoms: C_19  and  O_20
   13  A    between atoms: O_20  and  C_21
   14  A    between atoms: C_22  and  O_23
                            x       y       z     vdW  Elec       q    Type
                         _______ _______ _______ _____ _____    ______ ____

>  <TORSDO>
F 12

>  <SCORE>
-5.898

>  <RMSD_LB>
6.311

>  <RMSD_UB>
8.918

$$$$
CHEMBL190051
 OpenBabel10172500143D

 25 25  0  0  0  0  0  0  0  0999 V2000
  144.9440  137.5970  153.6150 C   0  0  0  0  0  2  0  0  0  0  0  0
  142.3100  136.9750  150.9180 C   0  0  0  0  0  0  0  0  0  0  0  0
  143.5360  137.0950  151.5890 C   0  0  0  0  0  3  0  0  0  0  0  0
  143.6100  137.5570  152.9140 C   0  0  0  0  0  0  0  0  0  0  0  0
  142.4280  137.9250  153.5770 C   0  0  0  0  0  3  0  0  0  0  0  0
  141.1970  137.8320  152.9240 C   0  0  0  0  0  0  0  0  0  0  0  0
  141.1530  137.3720  151.5980 C   0  0  0  0  0  0  0  0  0  0  0  0
  143.3180  136.2160  148.7620 C   0  0  0  0  0  2  0  0  0  0  0  0
  142.2500  136.4830  149.5300 C   0  0  0  0  0  3  0  0  0  0  0  0
  139.9840  138.1920  153.4600 O   0  0  0  0  0  0  0  0  0  0  0  0
  140.0020  138.5730  154.8320 C   0  0  0  0  0  1  0  0  0  0  0  0
  139.9280  137.2890  150.9740 O   0  0  0  0  0  0  0  0  0  0  0  0
  139.6380  136.4720  150.6230 H   0  0  0  0  0  0  0  0  0  0  0  0
  145.8020  138.6270  153.0810 N   0  0  0  0  0  0  0  0  0  0  0  0
  145.8270  139.8940  153.6100 C   0  0  0  0  0  0  0  0  0  0  0  0
  145.1240  140.2510  154.5530 O   0  0  0  0  0  0  0  0  0  0  0  0
  146.3860  138.4150  152.3170 H   0  0  0  0  0  0  0  0  0  0  0  0
  146.8000  140.8390  152.9380 C   0  0  0  0  0  2  0  0  0  0  0  0
  146.2520  142.2550  152.7890 C   0  0  0  0  0  2  0  0  0  0  0  0
  145.5310  142.4640  151.4560 C   0  0  0  0  0  2  0  0  0  0  0  0
  146.5370  142.6510  150.3230 C   0  0  0  0  0  2  0  0  0  0  0  0
  146.3720  141.5770  149.2510 C   0  0  0  0  0  2  0  0  0  0  0  0
  145.2750  140.5900  149.6410 C   0  0  0  0  0  2  0  0  0  0  0  0
  145.7270  139.1470  149.4370 C   0  0  0  0  0  2  0  0  0  0  0  0
  146.8780  139.0680  148.4480 C   0  0  0  0  0  1  0  0  0  0  0  0
  2  3  2  0  0  0  0
  2  7  1  0  0  0  0
  3  4  1  0  0  0  0
  4  5  2  0  0  0  0
  4  1  1  0  0  0  0
  6 10  1  0  0  0  0
  6  5  1  0  0  0  0
  7  6  2  0  0  0  0
  8  9  2  0  0  0  0
  9  2  1  0  0  0  0
 10 11  1  0  0  0  0
 12  7  1  0  0  0  0
 13 12  1  0  0  0  0
 14 15  1  0  0  0  0
 14  1  1  0  0  0  0
 15 16  2  0  0  0  0
 17 14  1  0  0  0  0
 18 15  1  0  0  0  0
 19 18  1  0  0  0  0
 20 19  1  0  0  0  0
 21 20  1  0  0  0  0
 22 23  1  0  0  0  0
 22 21  1  0  0  0  0
 24 23  1  0  0  0  0
 25 24  1  0  0  0  0
M  END
>  <MODEL>
5

>  <REMARK>
 VINA RESULT:    -5.872      1.987      3.083
 INTER + INTRA:         -11.366
 INTER:                  -9.603
 INTRA:                  -1.763
 UNBOUND:                -1.546
  Name = CHEMBL190051
  14 active torsions:
  status: ('A' for Active; 'I' for Inactive)
    1  A    between atoms: C_2  and  C_3
    2  A    between atoms: C_5  and  C_6
    3  A    between atoms: C_6  and  N_7
    4  A    between atoms: C_8  and  C_10
    5  A    between atoms: C_10  and  C_11
    6  A    between atoms: C_11  and  C_12
    7  A    between atoms: C_12  and  C_13
    8  A    between atoms: C_13  and  C_14
    9  A    between atoms: C_14  and  C_15
   10  A    between atoms: C_15  and  C_16
   11  A    between atoms: C_16  and  C_17
   12  A    between atoms: C_19  and  O_20
   13  A    between atoms: O_20  and  C_21
   14  A    between atoms: C_22  and  O_23
                            x       y       z     vdW  Elec       q    Type
                         _______ _______ _______ _____ _____    ______ ____

>  <TORSDO>
F 12

>  <SCORE>
-5.872

>  <RMSD_LB>
1.987

>  <RMSD_UB>
3.083

$$$$
CHEMBL190051
 OpenBabel10172500143D

 25 25  0  0  0  0  0  0  0  0999 V2000
  143.4270  137.0250  151.2790 C   0  0  0  0  0  2  0  0  0  0  0  0
  144.8240  138.8060  154.3570 C   0  0  0  0  0  0  0  0  0  0  0  0
  144.7230  138.0630  153.1720 C   0  0  0  0  0  3  0  0  0  0  0  0
  143.4780  137.7630  152.5930 C   0  0  0  0  0  0  0  0  0  0  0  0
  142.3040  138.2030  153.2270 C   0  0  0  0  0  3  0  0  0  0  0  0
  142.3780  138.9290  154.4180 C   0  0  0  0  0  0  0  0  0  0  0  0
  143.6360  139.2100  154.9770 C   0  0  0  0  0  0  0  0  0  0  0  0
  147.1260  138.2300  155.1350 C   0  0  0  0  0  2  0  0  0  0  0  0
  146.1380  139.1180  154.9470 C   0  0  0  0  0  3  0  0  0  0  0  0
  141.3010  139.3810  155.1410 O   0  0  0  0  0  0  0  0  0  0  0  0
  140.2130  138.4700  155.2670 C   0  0  0  0  0  1  0  0  0  0  0  0
  143.6840  139.9260  156.1520 O   0  0  0  0  0  0  0  0  0  0  0  0
  143.8700  139.4890  156.9590 H   0  0  0  0  0  0  0  0  0  0  0  0
  144.1480  137.7220  150.2420 N   0  0  0  0  0  0  0  0  0  0  0  0
  145.3380  137.2470  149.7440 C   0  0  0  0  0  0  0  0  0  0  0  0
  145.8800  136.2200  150.1420 O   0  0  0  0  0  0  0  0  0  0  0  0
  143.7790  138.5600  149.8810 H   0  0  0  0  0  0  0  0  0  0  0  0
  145.9450  138.0960  148.6470 C   0  0  0  0  0  2  0  0  0  0  0  0
  146.7000  139.3100  149.1800 C   0  0  0  0  0  2  0  0  0  0  0  0
  145.8000  140.5400  149.3230 C   0  0  0  0  0  2  0  0  0  0  0  0
  146.5860  141.8170  149.0390 C   0  0  0  0  0  2  0  0  0  0  0  0
  146.7080  142.6830  150.2900 C   0  0  0  0  0  2  0  0  0  0  0  0
  147.9150  142.2590  151.1220 C   0  0  0  0  0  2  0  0  0  0  0  0
  147.4850  141.5810  152.4200 C   0  0  0  0  0  2  0  0  0  0  0  0
  146.2570  142.2530  153.0080 C   0  0  0  0  0  1  0  0  0  0  0  0
  1  4  1  0  0  0  0
  2  9  1  0  0  0  0
  2  7  1  0  0  0  0
  3  2  2  0  0  0  0
  4  3  1  0  0  0  0
  4  5  2  0  0  0  0
  5  6  1  0  0  0  0
  6  7  2  0  0  0  0
  6 10  1  0  0  0  0
  7 12  1  0  0  0  0
  9  8  2  0  0  0  0
 10 11  1  0  0  0  0
 12 13  1  0  0  0  0
 14  1  1  0  0  0  0
 15 16  2  0  0  0  0
 15 14  1  0  0  0  0
 17 14  1  0  0  0  0
 18 19  1  0  0  0  0
 18 15  1  0  0  0  0
 19 20  1  0  0  0  0
 21 20  1  0  0  0  0
 21 22  1  0  0  0  0
 22 23  1  0  0  0  0
 23 24  1  0  0  0  0
 24 25  1  0  0  0  0
M  END
>  <MODEL>
6

>  <REMARK>
 VINA RESULT:    -5.774      2.172      3.978
 INTER + INTRA:         -11.203
 INTER:                  -9.702
 INTRA:                  -1.501
 UNBOUND:                -1.546
  Name = CHEMBL190051
  14 active torsions:
  status: ('A' for Active; 'I' for Inactive)
    1  A    between atoms: C_2  and  C_3
    2  A    between atoms: C_5  and  C_6
    3  A    between atoms: C_6  and  N_7
    4  A    between atoms: C_8  and  C_10
    5  A    between atoms: C_10  and  C_11
    6  A    between atoms: C_11  and  C_12
    7  A    between atoms: C_12  and  C_13
    8  A    between atoms: C_13  and  C_14
    9  A    between atoms: C_14  and  C_15
   10  A    between atoms: C_15  and  C_16
   11  A    between atoms: C_16  and  C_17
   12  A    between atoms: C_19  and  O_20
   13  A    between atoms: O_20  and  C_21
   14  A    between atoms: C_22  and  O_23
                            x       y       z     vdW  Elec       q    Type
                         _______ _______ _______ _____ _____    ______ ____

>  <TORSDO>
F 12

>  <SCORE>
-5.774

>  <RMSD_LB>
2.172

>  <RMSD_UB>
3.978

$$$$
CHEMBL190051
 OpenBabel10172500143D

 25 25  0  0  0  0  0  0  0  0999 V2000
  137.4160  136.3370  149.6720 C   0  0  0  0  0  2  0  0  0  0  0  0
  134.2030  134.6080  150.8090 C   0  0  0  0  0  0  0  0  0  0  0  0
  135.2350  135.1250  150.0110 C   0  0  0  0  0  3  0  0  0  0  0  0
  136.2930  135.8670  150.5620 C   0  0  0  0  0  0  0  0  0  0  0  0
  136.3080  136.1140  151.9450 C   0  0  0  0  0  3  0  0  0  0  0  0
  135.2830  135.6260  152.7570 C   0  0  0  0  0  0  0  0  0  0  0  0
  134.2350  134.8920  152.1790 C   0  0  0  0  0  0  0  0  0  0  0  0
  133.1410  133.2440  149.0060 C   0  0  0  0  0  2  0  0  0  0  0  0
  133.1050  133.8260  150.2150 C   0  0  0  0  0  3  0  0  0  0  0  0
  135.1770  135.8310  154.1120 O   0  0  0  0  0  0  0  0  0  0  0  0
  136.3950  136.1150  154.7930 C   0  0  0  0  0  1  0  0  0  0  0  0
  133.2350  134.4210  153.0000 O   0  0  0  0  0  0  0  0  0  0  0  0
  132.3380  134.5860  152.7860 H   0  0  0  0  0  0  0  0  0  0  0  0
  137.3330  135.7610  148.3510 N   0  0  0  0  0  0  0  0  0  0  0  0
  138.2840  134.8880  147.8820 C   0  0  0  0  0  0  0  0  0  0  0  0
  139.2700  134.5440  148.5290 O   0  0  0  0  0  0  0  0  0  0  0  0
  136.5750  136.0010  147.7710 H   0  0  0  0  0  0  0  0  0  0  0  0
  138.0260  134.3680  146.4830 C   0  0  0  0  0  2  0  0  0  0  0  0
  136.5640  134.0050  146.2410 C   0  0  0  0  0  2  0  0  0  0  0  0
  136.2240  132.5970  146.7350 C   0  0  0  0  0  2  0  0  0  0  0  0
  136.6110  131.5530  145.6910 C   0  0  0  0  0  2  0  0  0  0  0  0
  136.1590  131.9700  144.2940 C   0  0  0  0  0  2  0  0  0  0  0  0
  137.2140  131.6010  143.2540 C   0  0  0  0  0  2  0  0  0  0  0  0
  137.3430  132.6810  142.1850 C   0  0  0  0  0  2  0  0  0  0  0  0
  137.9540  133.9490  142.7580 C   0  0  0  0  0  1  0  0  0  0  0  0
  1  4  1  0  0  0  0
  2  7  1  0  0  0  0
  3  4  1  0  0  0  0
  3  2  2  0  0  0  0
  4  5  2  0  0  0  0
  5  6  1  0  0  0  0
  6 10  1  0  0  0  0
  7  6  2  0  0  0  0
  7 12  1  0  0  0  0
  8  9  2  0  0  0  0
  9  2  1  0  0  0  0
 10 11  1  0  0  0  0
 13 12  1  0  0  0  0
 14  1  1  0  0  0  0
 15 14  1  0  0  0  0
 15 16  2  0  0  0  0
 17 14  1  0  0  0  0
 18 15  1  0  0  0  0
 19 18  1  0  0  0  0
 19 20  1  0  0  0  0
 21 20  1  0  0  0  0
 22 21  1  0  0  0  0
 23 22  1  0  0  0  0
 24 25  1  0  0  0  0
 24 23  1  0  0  0  0
M  END
>  <MODEL>
7

>  <REMARK>
 VINA RESULT:    -5.698      8.067     10.788
 INTER + INTRA:         -11.075
 INTER:                  -9.596
 INTRA:                  -1.479
 UNBOUND:                -1.546
  Name = CHEMBL190051
  14 active torsions:
  status: ('A' for Active; 'I' for Inactive)
    1  A    between atoms: C_2  and  C_3
    2  A    between atoms: C_5  and  C_6
    3  A    between atoms: C_6  and  N_7
    4  A    between atoms: C_8  and  C_10
    5  A    between atoms: C_10  and  C_11
    6  A    between atoms: C_11  and  C_12
    7  A    between atoms: C_12  and  C_13
    8  A    between atoms: C_13  and  C_14
    9  A    between atoms: C_14  and  C_15
   10  A    between atoms: C_15  and  C_16
   11  A    between atoms: C_16  and  C_17
   12  A    between atoms: C_19  and  O_20
   13  A    between atoms: O_20  and  C_21
   14  A    between atoms: C_22  and  O_23
                            x       y       z     vdW  Elec       q    Type
                         _______ _______ _______ _____ _____    ______ ____

>  <TORSDO>
F 12

>  <SCORE>
-5.698

>  <RMSD_LB>
8.067

>  <RMSD_UB>
10.788

$$$$
CHEMBL190051
 OpenBabel10172500143D

 25 25  0  0  0  0  0  0  0  0999 V2000
  137.2780  136.1260  149.6180 C   0  0  0  0  0  2  0  0  0  0  0  0
  135.5770  135.3360  152.9470 C   0  0  0  0  0  0  0  0  0  0  0  0
  136.4780  135.8180  151.9850 C   0  0  0  0  0  3  0  0  0  0  0  0
  136.3260  135.5230  150.6200 C   0  0  0  0  0  0  0  0  0  0  0  0
  135.2560  134.7100  150.2100 C   0  0  0  0  0  3  0  0  0  0  0  0
  134.3580  134.2030  151.1510 C   0  0  0  0  0  0  0  0  0  0  0  0
  134.5360  134.5090  152.5100 C   0  0  0  0  0  0  0  0  0  0  0  0
  136.8910  136.0810  154.9370 C   0  0  0  0  0  2  0  0  0  0  0  0
  135.7470  135.6610  154.3740 C   0  0  0  0  0  3  0  0  0  0  0  0
  133.2970  133.3750  150.8710 O   0  0  0  0  0  0  0  0  0  0  0  0
  132.6540  133.5940  149.6190 C   0  0  0  0  0  1  0  0  0  0  0  0
  133.6380  133.9980  153.4190 O   0  0  0  0  0  0  0  0  0  0  0  0
  133.3050  133.1290  153.3100 H   0  0  0  0  0  0  0  0  0  0  0  0
  137.1280  135.5360  148.3100 N   0  0  0  0  0  0  0  0  0  0  0  0
  137.9510  134.5270  147.8720 C   0  0  0  0  0  0  0  0  0  0  0  0
  138.8730  134.0630  148.5390 O   0  0  0  0  0  0  0  0  0  0  0  0
  136.4160  135.8650  147.7150 H   0  0  0  0  0  0  0  0  0  0  0  0
  137.6360  134.0150  146.4820 C   0  0  0  0  0  2  0  0  0  0  0  0
  136.6340  132.8640  146.4830 C   0  0  0  0  0  2  0  0  0  0  0  0
  135.8610  132.7640  145.1660 C   0  0  0  0  0  2  0  0  0  0  0  0
  136.1910  131.4600  144.4460 C   0  0  0  0  0  2  0  0  0  0  0  0
  137.2150  131.6820  143.3350 C   0  0  0  0  0  2  0  0  0  0  0  0
  136.9210  132.9780  142.5830 C   0  0  0  0  0  2  0  0  0  0  0  0
  137.5480  132.9690  141.1920 C   0  0  0  0  0  2  0  0  0  0  0  0
  136.9620  134.0670  140.3210 C   0  0  0  0  0  1  0  0  0  0  0  0
  1  4  1  0  0  0  0
  2  9  1  0  0  0  0
  3  2  2  0  0  0  0
  4  3  1  0  0  0  0
  5  4  2  0  0  0  0
  5  6  1  0  0  0  0
  6  7  2  0  0  0  0
  7  2  1  0  0  0  0
  7 12  1  0  0  0  0
  9  8  2  0  0  0  0
 10  6  1  0  0  0  0
 11 10  1  0  0  0  0
 13 12  1  0  0  0  0
 14  1  1  0  0  0  0
 15 14  1  0  0  0  0
 15 16  2  0  0  0  0
 17 14  1  0  0  0  0
 18 19  1  0  0  0  0
 18 15  1  0  0  0  0
 20 19  1  0  0  0  0
 21 20  1  0  0  0  0
 22 21  1  0  0  0  0
 23 22  1  0  0  0  0
 24 23  1  0  0  0  0
 25 24  1  0  0  0  0
M  END
>  <MODEL>
8

>  <REMARK>
 VINA RESULT:    -5.588      8.265     11.421
 INTER + INTRA:         -10.890
 INTER:                  -9.990
 INTRA:                  -0.901
 UNBOUND:                -1.546
  Name = CHEMBL190051
  14 active torsions:
  status: ('A' for Active; 'I' for Inactive)
    1  A    between atoms: C_2  and  C_3
    2  A    between atoms: C_5  and  C_6
    3  A    between atoms: C_6  and  N_7
    4  A    between atoms: C_8  and  C_10
    5  A    between atoms: C_10  and  C_11
    6  A    between atoms: C_11  and  C_12
    7  A    between atoms: C_12  and  C_13
    8  A    between atoms: C_13  and  C_14
    9  A    between atoms: C_14  and  C_15
   10  A    between atoms: C_15  and  C_16
   11  A    between atoms: C_16  and  C_17
   12  A    between atoms: C_19  and  O_20
   13  A    between atoms: O_20  and  C_21
   14  A    between atoms: C_22  and  O_23
                            x       y       z     vdW  Elec       q    Type
                         _______ _______ _______ _____ _____    ______ ____

>  <TORSDO>
F 12

>  <SCORE>
-5.588

>  <RMSD_LB>
8.265

>  <RMSD_UB>
11.421

$$$$
CHEMBL190051
 OpenBabel10172500143D

 25 25  0  0  0  0  0  0  0  0999 V2000
  144.0890  136.2930  149.4100 C   0  0  0  0  0  2  0  0  0  0  0  0
  144.4490  137.4360  153.0380 C   0  0  0  0  0  0  0  0  0  0  0  0
  144.7320  136.9410  151.7560 C   0  0  0  0  0  3  0  0  0  0  0  0
  143.7230  136.7570  150.7970 C   0  0  0  0  0  0  0  0  0  0  0  0
  142.3930  137.0590  151.1360 C   0  0  0  0  0  3  0  0  0  0  0  0
  142.0840  137.5360  152.4110 C   0  0  0  0  0  0  0  0  0  0  0  0
  143.1120  137.7050  153.3530 C   0  0  0  0  0  0  0  0  0  0  0  0
  146.7720  137.1560  153.9140 C   0  0  0  0  0  2  0  0  0  0  0  0
  145.5220  137.6300  154.0300 C   0  0  0  0  0  3  0  0  0  0  0  0
  140.8210  137.8330  152.8640 O   0  0  0  0  0  0  0  0  0  0  0  0
  140.1520  138.8920  152.1850 C   0  0  0  0  0  1  0  0  0  0  0  0
  142.7830  138.1760  154.6040 O   0  0  0  0  0  0  0  0  0  0  0  0
  142.5860  139.0830  154.7250 H   0  0  0  0  0  0  0  0  0  0  0  0
  144.9090  137.2580  148.7190 N   0  0  0  0  0  0  0  0  0  0  0  0
  144.3660  138.2050  147.8840 C   0  0  0  0  0  0  0  0  0  0  0  0
  143.1630  138.2960  147.6530 O   0  0  0  0  0  0  0  0  0  0  0  0
  145.8850  137.2380  148.8480 H   0  0  0  0  0  0  0  0  0  0  0  0
  145.3730  139.1460  147.2590 C   0  0  0  0  0  2  0  0  0  0  0  0
  145.7140  140.3350  148.1530 C   0  0  0  0  0  2  0  0  0  0  0  0
  146.7310  139.9760  149.2380 C   0  0  0  0  0  2  0  0  0  0  0  0
  146.1640  140.2630  150.6250 C   0  0  0  0  0  2  0  0  0  0  0  0
  145.3810  141.5740  150.6440 C   0  0  0  0  0  2  0  0  0  0  0  0
  145.6440  142.3390  151.9390 C   0  0  0  0  0  2  0  0  0  0  0  0
  147.0800  142.1430  152.4190 C   0  0  0  0  0  2  0  0  0  0  0  0
  147.1320  141.9490  153.9250 C   0  0  0  0  0  1  0  0  0  0  0  0
  1  4  1  0  0  0  0
  2  7  1  0  0  0  0
  2  9  1  0  0  0  0
  3  2  2  0  0  0  0
  4  5  2  0  0  0  0
  4  3  1  0  0  0  0
  5  6  1  0  0  0  0
  6 10  1  0  0  0  0
  6  7  2  0  0  0  0
  7 12  1  0  0  0  0
  8  9  2  0  0  0  0
 11 10  1  0  0  0  0
 12 13  1  0  0  0  0
 14 17  1  0  0  0  0
 14  1  1  0  0  0  0
 15 14  1  0  0  0  0
 16 15  2  0  0  0  0
 18 15  1  0  0  0  0
 18 19  1  0  0  0  0
 19 20  1  0  0  0  0
 20 21  1  0  0  0  0
 21 22  1  0  0  0  0
 22 23  1  0  0  0  0
 23 24  1  0  0  0  0
 24 25  1  0  0  0  0
M  END
>  <MODEL>
9

>  <REMARK>
 VINA RESULT:    -5.405      2.137      3.942
 INTER + INTRA:         -10.585
 INTER:                  -9.038
 INTRA:                  -1.546
 UNBOUND:                -1.546
  Name = CHEMBL190051
  14 active torsions:
  status: ('A' for Active; 'I' for Inactive)
    1  A    between atoms: C_2  and  C_3
    2  A    between atoms: C_5  and  C_6
    3  A    between atoms: C_6  and  N_7
    4  A    between atoms: C_8  and  C_10
    5  A    between atoms: C_10  and  C_11
    6  A    between atoms: C_11  and  C_12
    7  A    between atoms: C_12  and  C_13
    8  A    between atoms: C_13  and  C_14
    9  A    between atoms: C_14  and  C_15
   10  A    between atoms: C_15  and  C_16
   11  A    between atoms: C_16  and  C_17
   12  A    between atoms: C_19  and  O_20
   13  A    between atoms: O_20  and  C_21
   14  A    between atoms: C_22  and  O_23
                            x       y       z     vdW  Elec       q    Type
                         _______ _______ _______ _____ _____    ______ ____

>  <TORSDO>
F 12

>  <SCORE>
-5.405

>  <RMSD_LB>
2.137

>  <RMSD_UB>
3.942

$$$$
