CHEMBL439654
 OpenBabel10162523363D

 33 33  0  0  1  0  0  0  0  0999 V2000
  140.5230  138.5190  153.6330 C   0  0  0  0  0  0  0  0  0  0  0  0
  140.9060  137.6670  152.5960 C   0  0  0  0  0  3  0  0  0  0  0  0
  142.2580  137.4030  152.3530 C   0  0  0  0  0  3  0  0  0  0  0  0
  143.2560  137.9870  153.1420 C   0  0  0  0  0  0  0  0  0  0  0  0
  142.8770  138.8330  154.1990 C   0  0  0  0  0  0  0  0  0  0  0  0
  141.5180  139.0650  154.4550 C   0  0  0  0  0  3  0  0  0  0  0  0
  143.7180  139.4640  155.0850 O   0  0  0  0  0  0  0  0  0  0  0  0
  143.1010  140.0790  156.2110 C   0  0  0  0  0  1  0  0  0  0  0  0
  139.0720  138.8370  153.8570 C   0  0  0  0  0  2  0  0  0  0  0  0
  137.3760  138.0950  155.4630 C   0  0  0  0  0  0  0  0  0  0  0  0
  136.9040  139.2230  155.5770 O   0  0  0  0  0  0  0  0  0  0  0  0
  138.4110  137.7960  154.6040 N   0  0  0  0  0  0  0  0  0  0  0  0
  138.7030  136.8620  154.5000 H   0  0  0  0  0  0  0  0  0  0  0  0
  136.8590  136.9130  156.2510 C   0  0  0  0  0  2  0  0  0  0  0  0
  136.5710  135.7320  155.3310 C   0  0  0  0  0  2  0  0  0  0  0  0
  135.1660  135.7930  154.7360 C   0  0  0  0  0  2  0  0  0  0  0  0
  134.9340  134.5990  153.8120 C   0  0  0  0  0  2  0  0  0  0  0  0
  135.8880  134.6110  152.6210 C   0  0  0  0  0  2  0  0  0  0  0  0
  135.6750  135.8590  151.7640 C   0  0  0  0  0  2  0  0  0  0  0  0
  137.6570  136.3150  150.2830 C   0  0  0  0  0  1  0  0  0  0  0  0
  136.9710  136.6470  151.5980 C   0  0  0  0  0  2  0  0  0  0  0  0
  144.5910  137.7690  152.9530 O   0  0  0  0  0  0  0  0  0  0  0  0
  145.2340  136.7430  153.7160 C   0  0  0  0  0  2  0  0  0  0  0  0
  146.7140  137.1250  153.8630 C   0  0  1  0  0  3  0  0  0  0  0  0
  147.3060  137.2670  152.5630 O   0  0  0  0  0  0  0  0  0  0  0  0
  146.6970  137.7480  151.9820 H   0  0  0  0  0  0  0  0  0  0  0  0
  146.9090  138.4360  154.6480 C   0  0  0  0  0  2  0  0  0  0  0  0
  146.4960  139.6040  153.8660 N   0  0  0  0  0  4  0  0  0  0  0  0
  145.5210  139.8170  154.0740 H   0  0  0  0  0  0  0  0  0  0  0  0
  146.6110  139.3910  152.8750 H   0  0  0  0  0  0  0  0  0  0  0  0
  147.3200  140.7670  154.1920 C   0  0  0  0  0  2  0  0  0  0  0  0
  146.5420  142.0420  153.8760 C   0  0  0  0  0  2  0  0  0  0  0  0
  146.5490  142.3260  152.3840 C   0  0  0  0  0  1  0  0  0  0  0  0
  1  9  1  0  0  0  0
  1  6  1  0  0  0  0
  2  1  2  0  0  0  0
  3  2  1  0  0  0  0
  3  4  2  0  0  0  0
  4  5  1  0  0  0  0
  5  6  2  0  0  0  0
  5  7  1  0  0  0  0
  7  8  1  0  0  0  0
  9 12  1  0  0  0  0
 10 11  2  0  0  0  0
 10 14  1  0  0  0  0
 12 10  1  0  0  0  0
 13 12  1  0  0  0  0
 15 14  1  0  0  0  0
 16 15  1  0  0  0  0
 17 16  1  0  0  0  0
 18 17  1  0  0  0  0
 19 18  1  0  0  0  0
 20 21  1  0  0  0  0
 21 19  1  0  0  0  0
 22  4  1  0  0  0  0
 22 23  1  0  0  0  0
 24 23  1  6  0  0  0
 24 27  1  0  0  0  0
 25 24  1  0  0  0  0
 26 25  1  0  0  0  0
 28 29  1  0  0  0  0
 28 31  1  0  0  0  0
 28 27  1  0  0  0  0
 30 28  1  0  0  0  0
 32 31  1  0  0  0  0
 33 32  1  0  0  0  0
M  END
>  <MODEL>
1

>  <REMARK>
 VINA RESULT:    -6.392      0.000      0.000
 INTER + INTRA:         -14.875
 INTER:                 -12.908
 INTRA:                  -1.968
 UNBOUND:                -1.945
  Name = CHEMBL439654
  21 active torsions:
  status: ('A' for Active; 'I' for Inactive)
    1  A    between atoms: C_1  and  C_2
    2  A    between atoms: C_2  and  C_3
    3  A    between atoms: C_3  and  C_4
    4  A    between atoms: C_4  and  C_5
    5  A    between atoms: C_5  and  C_6
    6  A    between atoms: C_6  and  C_7
    7  A    between atoms: C_7  and  C_8
    8  A    between atoms: C_8  and  C_9
    9  A    between atoms: N_11  and  C_12
   10  A    between atoms: C_12  and  C_13
   11  A    between atoms: C_16  and  O_17
   12  A    between atoms: O_17  and  C_18
   13  A    between atoms: C_18  and  C_19
   14  A    between atoms: C_19  and  O_20
   15  A    between atoms: C_19  and  C_21
   16  A    between atoms: C_21  and  N_22
   17  A    between atoms: N_22  and  C_23
   18  A    between atoms: C_23  and  C_24
   19  A    between atoms: C_24  and  C_25
   20  A    between atoms: C_26  and  O_27
   21  A    between atoms: O_27  and  C_28
                            x       y       z     vdW  Elec       q    Type
                         _______ _______ _______ _____ _____    ______ ____

>  <TORSDO>
F 18

>  <SCORE>
-6.392

>  <RMSD_LB>
0.000

>  <RMSD_UB>
0.000

$$$$
CHEMBL439654
 OpenBabel10162523363D

 33 33  0  0  1  0  0  0  0  0999 V2000
  140.1620  138.1070  151.7640 C   0  0  0  0  0  0  0  0  0  0  0  0
  141.2560  137.5210  151.1270 C   0  0  0  0  0  3  0  0  0  0  0  0
  142.4580  137.3220  151.8140 C   0  0  0  0  0  3  0  0  0  0  0  0
  142.5900  137.7050  153.1540 C   0  0  0  0  0  0  0  0  0  0  0  0
  141.4860  138.2800  153.8070 C   0  0  0  0  0  0  0  0  0  0  0  0
  140.2760  138.4460  153.1190 C   0  0  0  0  0  3  0  0  0  0  0  0
  141.4310  138.6860  155.1190 O   0  0  0  0  0  0  0  0  0  0  0  0
  140.7010  137.8480  156.0080 C   0  0  0  0  0  1  0  0  0  0  0  0
  138.8910  138.3630  151.0050 C   0  0  0  0  0  2  0  0  0  0  0  0
  137.1070  136.6830  151.0910 C   0  0  0  0  0  0  0  0  0  0  0  0
  137.5010  136.1260  150.0690 O   0  0  0  0  0  0  0  0  0  0  0  0
  137.7540  137.7600  151.6560 N   0  0  0  0  0  0  0  0  0  0  0  0
  137.4360  138.1230  152.5150 H   0  0  0  0  0  0  0  0  0  0  0  0
  135.8740  136.2340  151.8390 C   0  0  0  0  0  2  0  0  0  0  0  0
  135.9590  134.7510  152.1850 C   0  0  0  0  0  2  0  0  0  0  0  0
  135.2650  134.4260  153.5050 C   0  0  0  0  0  2  0  0  0  0  0  0
  135.2310  135.6630  154.4000 C   0  0  0  0  0  2  0  0  0  0  0  0
  136.4260  135.7080  155.3490 C   0  0  0  0  0  2  0  0  0  0  0  0
  137.1480  137.0520  155.2550 C   0  0  0  0  0  2  0  0  0  0  0  0
  136.7340  136.8950  157.7320 C   0  0  0  0  0  1  0  0  0  0  0  0
  137.0630  137.8200  156.5720 C   0  0  0  0  0  2  0  0  0  0  0  0
  143.7370  137.5370  153.8770 O   0  0  0  0  0  0  0  0  0  0  0  0
  144.8810  138.3280  153.5430 C   0  0  0  0  0  2  0  0  0  0  0  0
  144.7890  139.6440  154.3300 C   0  0  1  0  0  3  0  0  0  0  0  0
  144.3900  139.3690  155.6810 O   0  0  0  0  0  0  0  0  0  0  0  0
  143.8980  138.5340  155.7090 H   0  0  0  0  0  0  0  0  0  0  0  0
  146.1240  140.4140  154.3490 C   0  0  0  0  0  2  0  0  0  0  0  0
  145.9230  141.8530  154.1660 N   0  0  0  0  0  4  0  0  0  0  0  0
  146.4780  142.3590  154.8560 H   0  0  0  0  0  0  0  0  0  0  0  0
  144.9320  142.0630  154.2840 H   0  0  0  0  0  0  0  0  0  0  0  0
  146.3320  142.2690  152.8260 C   0  0  0  0  0  2  0  0  0  0  0  0
  147.7840  141.8600  152.5890 C   0  0  0  0  0  2  0  0  0  0  0  0
  148.2300  142.2280  151.1860 C   0  0  0  0  0  1  0  0  0  0  0  0
  1  6  1  0  0  0  0
  2  1  2  0  0  0  0
  2  3  1  0  0  0  0
  3  4  2  0  0  0  0
  4  5  1  0  0  0  0
  4 22  1  0  0  0  0
  5  7  1  0  0  0  0
  6  5  2  0  0  0  0
  7  8  1  0  0  0  0
  9 12  1  0  0  0  0
  9  1  1  0  0  0  0
 10 12  1  0  0  0  0
 10 14  1  0  0  0  0
 11 10  2  0  0  0  0
 12 13  1  0  0  0  0
 14 15  1  0  0  0  0
 15 16  1  0  0  0  0
 16 17  1  0  0  0  0
 17 18  1  0  0  0  0
 19 18  1  0  0  0  0
 19 21  1  0  0  0  0
 21 20  1  0  0  0  0
 23 22  1  0  0  0  0
 24 23  1  6  0  0  0
 24 27  1  0  0  0  0
 24 25  1  0  0  0  0
 25 26  1  0  0  0  0
 28 30  1  0  0  0  0
 28 27  1  0  0  0  0
 28 29  1  0  0  0  0
 31 28  1  0  0  0  0
 32 31  1  0  0  0  0
 33 32  1  0  0  0  0
M  END
>  <MODEL>
2

>  <REMARK>
 VINA RESULT:    -6.361      1.858      3.286
 INTER + INTRA:         -14.813
 INTER:                 -12.981
 INTRA:                  -1.832
 UNBOUND:                -1.945
  Name = CHEMBL439654
  21 active torsions:
  status: ('A' for Active; 'I' for Inactive)
    1  A    between atoms: C_1  and  C_2
    2  A    between atoms: C_2  and  C_3
    3  A    between atoms: C_3  and  C_4
    4  A    between atoms: C_4  and  C_5
    5  A    between atoms: C_5  and  C_6
    6  A    between atoms: C_6  and  C_7
    7  A    between atoms: C_7  and  C_8
    8  A    between atoms: C_8  and  C_9
    9  A    between atoms: N_11  and  C_12
   10  A    between atoms: C_12  and  C_13
   11  A    between atoms: C_16  and  O_17
   12  A    between atoms: O_17  and  C_18
   13  A    between atoms: C_18  and  C_19
   14  A    between atoms: C_19  and  O_20
   15  A    between atoms: C_19  and  C_21
   16  A    between atoms: C_21  and  N_22
   17  A    between atoms: N_22  and  C_23
   18  A    between atoms: C_23  and  C_24
   19  A    between atoms: C_24  and  C_25
   20  A    between atoms: C_26  and  O_27
   21  A    between atoms: O_27  and  C_28
                            x       y       z     vdW  Elec       q    Type
                         _______ _______ _______ _____ _____    ______ ____

>  <TORSDO>
F 18

>  <SCORE>
-6.361

>  <RMSD_LB>
1.858

>  <RMSD_UB>
3.286

$$$$
CHEMBL439654
 OpenBabel10162523363D

 33 33  0  0  1  0  0  0  0  0999 V2000
  141.8280  137.8240  152.8480 C   0  0  0  0  0  0  0  0  0  0  0  0
  142.2680  137.9510  154.1660 C   0  0  0  0  0  3  0  0  0  0  0  0
  141.3560  138.1840  155.2010 C   0  0  0  0  0  3  0  0  0  0  0  0
  139.9860  138.2960  154.9390 C   0  0  0  0  0  0  0  0  0  0  0  0
  139.5340  138.1530  153.6160 C   0  0  0  0  0  0  0  0  0  0  0  0
  140.4520  137.8860  152.5890 C   0  0  0  0  0  3  0  0  0  0  0  0
  138.2300  138.2040  153.1850 O   0  0  0  0  0  0  0  0  0  0  0  0
  137.8620  137.2710  152.1750 C   0  0  0  0  0  1  0  0  0  0  0  0
  142.8180  137.6240  151.7350 C   0  0  0  0  0  2  0  0  0  0  0  0
  144.2900  139.5360  151.3060 C   0  0  0  0  0  0  0  0  0  0  0  0
  145.1780  139.0910  152.0280 O   0  0  0  0  0  0  0  0  0  0  0  0
  143.1130  138.8630  151.0600 N   0  0  0  0  0  0  0  0  0  0  0  0
  142.4660  139.2320  150.4160 H   0  0  0  0  0  0  0  0  0  0  0  0
  144.4040  140.8690  150.6020 C   0  0  0  0  0  2  0  0  0  0  0  0
  145.1840  141.8660  151.4520 C   0  0  0  0  0  2  0  0  0  0  0  0
  146.0460  142.7970  150.6030 C   0  0  0  0  0  2  0  0  0  0  0  0
  147.2730  142.0490  150.0840 C   0  0  0  0  0  2  0  0  0  0  0  0
  148.5230  142.3840  150.8940 C   0  0  0  0  0  2  0  0  0  0  0  0
  148.7140  141.3910  152.0390 C   0  0  0  0  0  2  0  0  0  0  0  0
  148.5480  141.5220  154.5460 C   0  0  0  0  0  1  0  0  0  0  0  0
  149.2120  142.0890  153.3020 C   0  0  0  0  0  2  0  0  0  0  0  0
  139.0480  138.5240  155.9060 O   0  0  0  0  0  0  0  0  0  0  0  0
  138.6490  137.4360  156.7450 C   0  0  0  0  0  2  0  0  0  0  0  0
  137.1130  137.3920  156.7580 C   0  0  1  0  0  3  0  0  0  0  0  0
  136.6000  138.2210  155.7040 O   0  0  0  0  0  0  0  0  0  0  0  0
  136.3510  137.6650  154.9490 H   0  0  0  0  0  0  0  0  0  0  0  0
  136.5620  135.9640  156.5840 C   0  0  0  0  0  2  0  0  0  0  0  0
  135.6590  135.5940  157.6750 N   0  0  0  0  0  4  0  0  0  0  0  0
  135.4630  134.5940  157.6230 H   0  0  0  0  0  0  0  0  0  0  0  0
  134.7960  136.1300  157.5820 H   0  0  0  0  0  0  0  0  0  0  0  0
  136.2590  135.8960  158.9740 C   0  0  0  0  0  2  0  0  0  0  0  0
  135.2170  136.5610  159.8700 C   0  0  0  0  0  2  0  0  0  0  0  0
  134.0300  135.6410  160.0980 C   0  0  0  0  0  1  0  0  0  0  0  0
  1  2  1  0  0  0  0
  2  3  2  0  0  0  0
  4  3  1  0  0  0  0
  4 22  1  0  0  0  0
  5  4  2  0  0  0  0
  6  1  2  0  0  0  0
  6  5  1  0  0  0  0
  7  5  1  0  0  0  0
  8  7  1  0  0  0  0
  9  1  1  0  0  0  0
 10 11  2  0  0  0  0
 12 10  1  0  0  0  0
 12  9  1  0  0  0  0
 13 12  1  0  0  0  0
 14 10  1  0  0  0  0
 14 15  1  0  0  0  0
 16 15  1  0  0  0  0
 17 16  1  0  0  0  0
 17 18  1  0  0  0  0
 18 19  1  0  0  0  0
 19 21  1  0  0  0  0
 21 20  1  0  0  0  0
 22 23  1  0  0  0  0
 23 24  1  0  0  0  0
 24 27  1  6  0  0  0
 25 24  1  0  0  0  0
 26 25  1  0  0  0  0
 27 28  1  0  0  0  0
 28 31  1  0  0  0  0
 29 28  1  0  0  0  0
 30 28  1  0  0  0  0
 31 32  1  0  0  0  0
 32 33  1  0  0  0  0
M  END
>  <MODEL>
3

>  <REMARK>
 VINA RESULT:    -6.335      2.474     10.095
 INTER + INTRA:         -14.760
 INTER:                 -13.278
 INTRA:                  -1.483
 UNBOUND:                -1.945
  Name = CHEMBL439654
  21 active torsions:
  status: ('A' for Active; 'I' for Inactive)
    1  A    between atoms: C_1  and  C_2
    2  A    between atoms: C_2  and  C_3
    3  A    between atoms: C_3  and  C_4
    4  A    between atoms: C_4  and  C_5
    5  A    between atoms: C_5  and  C_6
    6  A    between atoms: C_6  and  C_7
    7  A    between atoms: C_7  and  C_8
    8  A    between atoms: C_8  and  C_9
    9  A    between atoms: N_11  and  C_12
   10  A    between atoms: C_12  and  C_13
   11  A    between atoms: C_16  and  O_17
   12  A    between atoms: O_17  and  C_18
   13  A    between atoms: C_18  and  C_19
   14  A    between atoms: C_19  and  O_20
   15  A    between atoms: C_19  and  C_21
   16  A    between atoms: C_21  and  N_22
   17  A    between atoms: N_22  and  C_23
   18  A    between atoms: C_23  and  C_24
   19  A    between atoms: C_24  and  C_25
   20  A    between atoms: C_26  and  O_27
   21  A    between atoms: O_27  and  C_28
                            x       y       z     vdW  Elec       q    Type
                         _______ _______ _______ _____ _____    ______ ____

>  <TORSDO>
F 18

>  <SCORE>
-6.335

>  <RMSD_LB>
2.474

>  <RMSD_UB>
10.095

$$$$
CHEMBL439654
 OpenBabel10162523363D

 33 33  0  0  1  0  0  0  0  0999 V2000
  140.8760  138.4780  154.0410 C   0  0  0  0  0  0  0  0  0  0  0  0
  141.3960  137.9140  152.8760 C   0  0  0  0  0  3  0  0  0  0  0  0
  142.7590  138.0210  152.5790 C   0  0  0  0  0  3  0  0  0  0  0  0
  143.6300  138.6940  153.4430 C   0  0  0  0  0  0  0  0  0  0  0  0
  143.1170  139.2500  154.6270 C   0  0  0  0  0  0  0  0  0  0  0  0
  141.7550  139.1100  154.9320 C   0  0  0  0  0  3  0  0  0  0  0  0
  143.8300  139.9160  155.5960 O   0  0  0  0  0  0  0  0  0  0  0  0
  143.1800  140.0860  156.8510 C   0  0  0  0  0  1  0  0  0  0  0  0
  139.4030  138.4040  154.3290 C   0  0  0  0  0  2  0  0  0  0  0  0
  137.8950  138.1800  156.2480 C   0  0  0  0  0  0  0  0  0  0  0  0
  136.9190  138.5490  155.6010 O   0  0  0  0  0  0  0  0  0  0  0  0
  139.1490  138.0290  155.6970 N   0  0  0  0  0  0  0  0  0  0  0  0
  139.8800  137.6610  156.2450 H   0  0  0  0  0  0  0  0  0  0  0  0
  137.8160  137.8420  157.7190 C   0  0  0  0  0  2  0  0  0  0  0  0
  136.5810  136.9980  158.0170 C   0  0  0  0  0  2  0  0  0  0  0  0
  136.6620  135.6130  157.3800 C   0  0  0  0  0  2  0  0  0  0  0  0
  135.3730  135.3100  156.6170 C   0  0  0  0  0  2  0  0  0  0  0  0
  135.6090  135.2500  155.1100 C   0  0  0  0  0  2  0  0  0  0  0  0
  134.5160  136.0070  154.3550 C   0  0  0  0  0  2  0  0  0  0  0  0
  134.5610  134.0050  152.8330 C   0  0  0  0  0  1  0  0  0  0  0  0
  133.6880  135.0660  153.4840 C   0  0  0  0  0  2  0  0  0  0  0  0
  144.9690  138.8320  153.2080 O   0  0  0  0  0  0  0  0  0  0  0  0
  145.4210  139.9580  152.4490 C   0  0  0  0  0  2  0  0  0  0  0  0
  146.4180  140.7390  153.3180 C   0  0  1  0  0  3  0  0  0  0  0  0
  145.7030  141.5130  154.2940 O   0  0  0  0  0  0  0  0  0  0  0  0
  144.7860  141.6300  154.0030 H   0  0  0  0  0  0  0  0  0  0  0  0
  147.4170  139.8170  154.0440 C   0  0  0  0  0  2  0  0  0  0  0  0
  146.9590  139.4750  155.3920 N   0  0  0  0  0  4  0  0  0  0  0  0
  145.9410  139.5310  155.4240 H   0  0  0  0  0  0  0  0  0  0  0  0
  147.3720  140.1310  156.0540 H   0  0  0  0  0  0  0  0  0  0  0  0
  147.3740  138.1210  155.7540 C   0  0  0  0  0  2  0  0  0  0  0  0
  148.1240  138.1610  157.0840 C   0  0  0  0  0  2  0  0  0  0  0  0
  148.8690  136.8600  157.3260 C   0  0  0  0  0  1  0  0  0  0  0  0
  1  9  1  0  0  0  0
  1  6  1  0  0  0  0
  2  1  2  0  0  0  0
  3  2  1  0  0  0  0
  3  4  2  0  0  0  0
  4  5  1  0  0  0  0
  5  6  2  0  0  0  0
  5  7  1  0  0  0  0
  7  8  1  0  0  0  0
  9 12  1  0  0  0  0
 10 14  1  0  0  0  0
 11 10  2  0  0  0  0
 12 13  1  0  0  0  0
 12 10  1  0  0  0  0
 14 15  1  0  0  0  0
 16 15  1  0  0  0  0
 17 16  1  0  0  0  0
 18 17  1  0  0  0  0
 19 18  1  0  0  0  0
 20 21  1  0  0  0  0
 21 19  1  0  0  0  0
 22  4  1  0  0  0  0
 23 22  1  0  0  0  0
 24 23  1  1  0  0  0
 24 27  1  0  0  0  0
 24 25  1  0  0  0  0
 26 25  1  0  0  0  0
 27 28  1  0  0  0  0
 28 29  1  0  0  0  0
 28 31  1  0  0  0  0
 28 30  1  0  0  0  0
 31 32  1  0  0  0  0
 32 33  1  0  0  0  0
M  END
>  <MODEL>
4

>  <REMARK>
 VINA RESULT:    -6.314      1.744      2.897
 INTER + INTRA:         -14.718
 INTER:                 -12.603
 INTRA:                  -2.115
 UNBOUND:                -1.945
  Name = CHEMBL439654
  21 active torsions:
  status: ('A' for Active; 'I' for Inactive)
    1  A    between atoms: C_1  and  C_2
    2  A    between atoms: C_2  and  C_3
    3  A    between atoms: C_3  and  C_4
    4  A    between atoms: C_4  and  C_5
    5  A    between atoms: C_5  and  C_6
    6  A    between atoms: C_6  and  C_7
    7  A    between atoms: C_7  and  C_8
    8  A    between atoms: C_8  and  C_9
    9  A    between atoms: N_11  and  C_12
   10  A    between atoms: C_12  and  C_13
   11  A    between atoms: C_16  and  O_17
   12  A    between atoms: O_17  and  C_18
   13  A    between atoms: C_18  and  C_19
   14  A    between atoms: C_19  and  O_20
   15  A    between atoms: C_19  and  C_21
   16  A    between atoms: C_21  and  N_22
   17  A    between atoms: N_22  and  C_23
   18  A    between atoms: C_23  and  C_24
   19  A    between atoms: C_24  and  C_25
   20  A    between atoms: C_26  and  O_27
   21  A    between atoms: O_27  and  C_28
                            x       y       z     vdW  Elec       q    Type
                         _______ _______ _______ _____ _____    ______ ____

>  <TORSDO>
F 18

>  <SCORE>
-6.314

>  <RMSD_LB>
1.744

>  <RMSD_UB>
2.897

$$$$
CHEMBL439654
 OpenBabel10162523363D

 33 33  0  0  1  0  0  0  0  0999 V2000
  135.9580  135.8440  153.9920 C   0  0  0  0  0  0  0  0  0  0  0  0
  134.9370  134.9100  154.1780 C   0  0  0  0  0  3  0  0  0  0  0  0
  134.2260  134.4050  153.0840 C   0  0  0  0  0  3  0  0  0  0  0  0
  134.5210  134.8240  151.7810 C   0  0  0  0  0  0  0  0  0  0  0  0
  135.5590  135.7510  151.5850 C   0  0  0  0  0  0  0  0  0  0  0  0
  136.2880  136.2270  152.6850 C   0  0  0  0  0  3  0  0  0  0  0  0
  135.9990  136.2460  150.3800 O   0  0  0  0  0  0  0  0  0  0  0  0
  137.2840  135.8090  149.9510 C   0  0  0  0  0  1  0  0  0  0  0  0
  136.6830  136.4190  155.1750 C   0  0  0  0  0  2  0  0  0  0  0  0
  137.9260  138.5080  154.8540 C   0  0  0  0  0  0  0  0  0  0  0  0
  137.0280  139.1870  155.3450 O   0  0  0  0  0  0  0  0  0  0  0  0
  137.8690  137.1330  154.7730 N   0  0  0  0  0  0  0  0  0  0  0  0
  138.6470  136.6330  154.4350 H   0  0  0  0  0  0  0  0  0  0  0  0
  139.1930  139.1130  154.2970 C   0  0  0  0  0  2  0  0  0  0  0  0
  140.0330  138.0580  153.5860 C   0  0  0  0  0  2  0  0  0  0  0  0
  139.6870  137.9470  152.1030 C   0  0  0  0  0  2  0  0  0  0  0  0
  140.9170  137.5140  151.3070 C   0  0  0  0  0  2  0  0  0  0  0  0
  142.1560  137.4110  152.1930 C   0  0  0  0  0  2  0  0  0  0  0  0
  143.3730  138.0290  151.5050 C   0  0  0  0  0  2  0  0  0  0  0  0
  143.6820  140.3990  150.7200 C   0  0  0  0  0  1  0  0  0  0  0  0
  143.5720  139.4820  151.9280 C   0  0  0  0  0  2  0  0  0  0  0  0
  133.8620  134.3690  150.6750 O   0  0  0  0  0  0  0  0  0  0  0  0
  134.3370  133.1810  150.0330 C   0  0  0  0  0  2  0  0  0  0  0  0
  133.5020  132.9690  148.7610 C   0  0  1  0  0  3  0  0  0  0  0  0
  132.1900  133.5220  148.9490 O   0  0  0  0  0  0  0  0  0  0  0  0
  132.2660  134.4620  149.1760 H   0  0  0  0  0  0  0  0  0  0  0  0
  134.1440  133.6150  147.5190 C   0  0  0  0  0  2  0  0  0  0  0  0
  134.6270  134.9690  147.7980 N   0  0  0  0  0  4  0  0  0  0  0  0
  135.6150  135.0290  147.5540 H   0  0  0  0  0  0  0  0  0  0  0  0
  134.4940  135.1650  148.7910 H   0  0  0  0  0  0  0  0  0  0  0  0
  133.8820  135.9590  147.0230 C   0  0  0  0  0  2  0  0  0  0  0  0
  133.7160  137.2300  147.8520 C   0  0  0  0  0  2  0  0  0  0  0  0
  132.6640  137.0420  148.9300 C   0  0  0  0  0  1  0  0  0  0  0  0
  1  2  1  0  0  0  0
  1  9  1  0  0  0  0
  3  2  2  0  0  0  0
  4  3  1  0  0  0  0
  5  4  2  0  0  0  0
  5  6  1  0  0  0  0
  6  1  2  0  0  0  0
  7  5  1  0  0  0  0
  8  7  1  0  0  0  0
 10 11  2  0  0  0  0
 12 10  1  0  0  0  0
 12  9  1  0  0  0  0
 13 12  1  0  0  0  0
 14 10  1  0  0  0  0
 15 14  1  0  0  0  0
 16 15  1  0  0  0  0
 17 16  1  0  0  0  0
 17 18  1  0  0  0  0
 19 21  1  0  0  0  0
 19 18  1  0  0  0  0
 20 21  1  0  0  0  0
 22  4  1  0  0  0  0
 23 22  1  0  0  0  0
 24 27  1  6  0  0  0
 24 25  1  0  0  0  0
 24 23  1  0  0  0  0
 25 26  1  0  0  0  0
 27 28  1  0  0  0  0
 28 30  1  0  0  0  0
 29 28  1  0  0  0  0
 31 28  1  0  0  0  0
 31 32  1  0  0  0  0
 32 33  1  0  0  0  0
M  END
>  <MODEL>
5

>  <REMARK>
 VINA RESULT:    -6.260      3.956      9.781
 INTER + INTRA:         -14.609
 INTER:                 -12.375
 INTRA:                  -2.234
 UNBOUND:                -1.945
  Name = CHEMBL439654
  21 active torsions:
  status: ('A' for Active; 'I' for Inactive)
    1  A    between atoms: C_1  and  C_2
    2  A    between atoms: C_2  and  C_3
    3  A    between atoms: C_3  and  C_4
    4  A    between atoms: C_4  and  C_5
    5  A    between atoms: C_5  and  C_6
    6  A    between atoms: C_6  and  C_7
    7  A    between atoms: C_7  and  C_8
    8  A    between atoms: C_8  and  C_9
    9  A    between atoms: N_11  and  C_12
   10  A    between atoms: C_12  and  C_13
   11  A    between atoms: C_16  and  O_17
   12  A    between atoms: O_17  and  C_18
   13  A    between atoms: C_18  and  C_19
   14  A    between atoms: C_19  and  O_20
   15  A    between atoms: C_19  and  C_21
   16  A    between atoms: C_21  and  N_22
   17  A    between atoms: N_22  and  C_23
   18  A    between atoms: C_23  and  C_24
   19  A    between atoms: C_24  and  C_25
   20  A    between atoms: C_26  and  O_27
   21  A    between atoms: O_27  and  C_28
                            x       y       z     vdW  Elec       q    Type
                         _______ _______ _______ _____ _____    ______ ____

>  <TORSDO>
F 18

>  <SCORE>
-6.260

>  <RMSD_LB>
3.956

>  <RMSD_UB>
9.781

$$$$
CHEMBL439654
 OpenBabel10162523363D

 33 33  0  0  1  0  0  0  0  0999 V2000
  138.2310  137.9780  154.7590 C   0  0  0  0  0  0  0  0  0  0  0  0
  137.7050  137.4690  153.5710 C   0  0  0  0  0  3  0  0  0  0  0  0
  138.4920  137.3950  152.4170 C   0  0  0  0  0  3  0  0  0  0  0  0
  139.8230  137.8290  152.4280 C   0  0  0  0  0  0  0  0  0  0  0  0
  140.3650  138.3270  153.6250 C   0  0  0  0  0  0  0  0  0  0  0  0
  139.5780  138.3670  154.7850 C   0  0  0  0  0  3  0  0  0  0  0  0
  141.6530  138.7660  153.8210 O   0  0  0  0  0  0  0  0  0  0  0  0
  141.9540  139.2780  155.1150 C   0  0  0  0  0  1  0  0  0  0  0  0
  137.3650  138.1010  155.9800 C   0  0  0  0  0  2  0  0  0  0  0  0
  136.3000  136.0020  156.6670 C   0  0  0  0  0  0  0  0  0  0  0  0
  137.2130  135.7230  157.4400 O   0  0  0  0  0  0  0  0  0  0  0  0
  136.2620  137.1740  155.9430 N   0  0  0  0  0  0  0  0  0  0  0  0
  135.4720  137.3800  155.3920 H   0  0  0  0  0  0  0  0  0  0  0  0
  135.1180  135.0900  156.4400 C   0  0  0  0  0  2  0  0  0  0  0  0
  134.4250  135.4160  155.1210 C   0  0  0  0  0  2  0  0  0  0  0  0
  134.7360  134.3880  154.0360 C   0  0  0  0  0  2  0  0  0  0  0  0
  134.8520  135.0770  152.6770 C   0  0  0  0  0  2  0  0  0  0  0  0
  135.8280  134.3490  151.7560 C   0  0  0  0  0  2  0  0  0  0  0  0
  135.1720  134.0200  150.4160 C   0  0  0  0  0  2  0  0  0  0  0  0
  132.9010  133.5700  149.4320 C   0  0  0  0  0  1  0  0  0  0  0  0
  133.8280  133.3230  150.6110 C   0  0  0  0  0  2  0  0  0  0  0  0
  140.6410  137.7830  151.3340 O   0  0  0  0  0  0  0  0  0  0  0  0
  140.2120  138.4240  150.1290 C   0  0  0  0  0  2  0  0  0  0  0  0
  140.5660  139.9140  150.2380 C   0  0  1  0  0  3  0  0  0  0  0  0
  141.6190  140.2280  149.3140 O   0  0  0  0  0  0  0  0  0  0  0  0
  141.4500  141.0940  148.9140 H   0  0  0  0  0  0  0  0  0  0  0  0
  139.3600  140.8300  149.9500 C   0  0  0  0  0  2  0  0  0  0  0  0
  138.0990  140.0850  149.9540 N   0  0  0  0  0  4  0  0  0  0  0  0
  137.5390  140.3800  150.7530 H   0  0  0  0  0  0  0  0  0  0  0  0
  138.3080  139.0880  150.0150 H   0  0  0  0  0  0  0  0  0  0  0  0
  137.3460  140.3300  148.7250 C   0  0  0  0  0  2  0  0  0  0  0  0
  137.6740  139.2420  147.7050 C   0  0  0  0  0  2  0  0  0  0  0  0
  136.9850  139.5140  146.3800 C   0  0  0  0  0  1  0  0  0  0  0  0
  1  6  1  0  0  0  0
  1  9  1  0  0  0  0
  2  1  2  0  0  0  0
  3  4  2  0  0  0  0
  3  2  1  0  0  0  0
  4  5  1  0  0  0  0
  5  7  1  0  0  0  0
  5  6  2  0  0  0  0
  7  8  1  0  0  0  0
 10 11  2  0  0  0  0
 12  9  1  0  0  0  0
 12 10  1  0  0  0  0
 13 12  1  0  0  0  0
 14 10  1  0  0  0  0
 15 14  1  0  0  0  0
 16 15  1  0  0  0  0
 17 16  1  0  0  0  0
 18 17  1  0  0  0  0
 19 21  1  0  0  0  0
 19 18  1  0  0  0  0
 20 21  1  0  0  0  0
 22  4  1  0  0  0  0
 23 24  1  0  0  0  0
 23 22  1  0  0  0  0
 24 27  1  6  0  0  0
 25 24  1  0  0  0  0
 26 25  1  0  0  0  0
 27 28  1  0  0  0  0
 28 30  1  0  0  0  0
 28 29  1  0  0  0  0
 31 28  1  0  0  0  0
 32 31  1  0  0  0  0
 33 32  1  0  0  0  0
M  END
>  <MODEL>
6

>  <REMARK>
 VINA RESULT:    -6.183      3.590      5.593
 INTER + INTRA:         -14.454
 INTER:                 -12.509
 INTRA:                  -1.945
 UNBOUND:                -1.945
  Name = CHEMBL439654
  21 active torsions:
  status: ('A' for Active; 'I' for Inactive)
    1  A    between atoms: C_1  and  C_2
    2  A    between atoms: C_2  and  C_3
    3  A    between atoms: C_3  and  C_4
    4  A    between atoms: C_4  and  C_5
    5  A    between atoms: C_5  and  C_6
    6  A    between atoms: C_6  and  C_7
    7  A    between atoms: C_7  and  C_8
    8  A    between atoms: C_8  and  C_9
    9  A    between atoms: N_11  and  C_12
   10  A    between atoms: C_12  and  C_13
   11  A    between atoms: C_16  and  O_17
   12  A    between atoms: O_17  and  C_18
   13  A    between atoms: C_18  and  C_19
   14  A    between atoms: C_19  and  O_20
   15  A    between atoms: C_19  and  C_21
   16  A    between atoms: C_21  and  N_22
   17  A    between atoms: N_22  and  C_23
   18  A    between atoms: C_23  and  C_24
   19  A    between atoms: C_24  and  C_25
   20  A    between atoms: C_26  and  O_27
   21  A    between atoms: O_27  and  C_28
                            x       y       z     vdW  Elec       q    Type
                         _______ _______ _______ _____ _____    ______ ____

>  <TORSDO>
F 18

>  <SCORE>
-6.183

>  <RMSD_LB>
3.590

>  <RMSD_UB>
5.593

$$$$
CHEMBL439654
 OpenBabel10162523363D

 33 33  0  0  1  0  0  0  0  0999 V2000
  139.6690  137.7640  151.4790 C   0  0  0  0  0  0  0  0  0  0  0  0
  139.6970  138.3740  152.7340 C   0  0  0  0  0  3  0  0  0  0  0  0
  140.8990  138.4970  153.4400 C   0  0  0  0  0  3  0  0  0  0  0  0
  142.0980  138.0120  152.9040 C   0  0  0  0  0  0  0  0  0  0  0  0
  142.0800  137.4120  151.6330 C   0  0  0  0  0  0  0  0  0  0  0  0
  140.8760  137.3230  150.9200 C   0  0  0  0  0  3  0  0  0  0  0  0
  143.1610  136.9110  150.9490 O   0  0  0  0  0  0  0  0  0  0  0  0
  143.7900  137.7960  150.0280 C   0  0  0  0  0  1  0  0  0  0  0  0
  138.3670  137.5910  150.7500 C   0  0  0  0  0  2  0  0  0  0  0  0
  136.5820  136.0710  151.4660 C   0  0  0  0  0  0  0  0  0  0  0  0
  136.8570  135.2440  150.6010 O   0  0  0  0  0  0  0  0  0  0  0  0
  137.2990  137.2330  151.6500 N   0  0  0  0  0  0  0  0  0  0  0  0
  137.0800  137.8270  152.4050 H   0  0  0  0  0  0  0  0  0  0  0  0
  135.4300  135.8910  152.4270 C   0  0  0  0  0  2  0  0  0  0  0  0
  135.7980  134.9150  153.5390 C   0  0  0  0  0  2  0  0  0  0  0  0
  135.5700  135.5080  154.9270 C   0  0  0  0  0  2  0  0  0  0  0  0
  136.8970  135.9760  155.5220 C   0  0  0  0  0  2  0  0  0  0  0  0
  136.7760  136.2640  157.0160 C   0  0  0  0  0  2  0  0  0  0  0  0
  137.8290  137.2780  157.4640 C   0  0  0  0  0  2  0  0  0  0  0  0
  140.2400  137.3650  156.7540 C   0  0  0  0  0  1  0  0  0  0  0  0
  138.7990  137.6070  156.3330 C   0  0  0  0  0  2  0  0  0  0  0  0
  143.3010  138.1020  153.5450 O   0  0  0  0  0  0  0  0  0  0  0  0
  143.5340  139.2140  154.4150 C   0  0  0  0  0  2  0  0  0  0  0  0
  145.0530  139.4250  154.5100 C   0  0  1  0  0  3  0  0  0  0  0  0
  145.6740  138.2290  155.0060 O   0  0  0  0  0  0  0  0  0  0  0  0
  146.5550  138.1360  154.6110 H   0  0  0  0  0  0  0  0  0  0  0  0
  145.6840  139.7910  153.1530 C   0  0  0  0  0  2  0  0  0  0  0  0
  144.9410  140.8560  152.4770 N   0  0  0  0  0  4  0  0  0  0  0  0
  144.1000  141.0690  153.0140 H   0  0  0  0  0  0  0  0  0  0  0  0
  144.6930  140.5380  151.5400 H   0  0  0  0  0  0  0  0  0  0  0  0
  145.7530  142.0660  152.3610 C   0  0  0  0  0  2  0  0  0  0  0  0
  145.6470  142.6110  150.9390 C   0  0  0  0  0  2  0  0  0  0  0  0
  146.9730  142.4890  150.2100 C   0  0  0  0  0  1  0  0  0  0  0  0
  1  2  1  0  0  0  0
  2  3  2  0  0  0  0
  4  3  1  0  0  0  0
  4 22  1  0  0  0  0
  5  4  2  0  0  0  0
  6  1  2  0  0  0  0
  6  5  1  0  0  0  0
  7  5  1  0  0  0  0
  8  7  1  0  0  0  0
  9  1  1  0  0  0  0
  9 12  1  0  0  0  0
 10 12  1  0  0  0  0
 10 14  1  0  0  0  0
 11 10  2  0  0  0  0
 12 13  1  0  0  0  0
 14 15  1  0  0  0  0
 15 16  1  0  0  0  0
 16 17  1  0  0  0  0
 17 18  1  0  0  0  0
 18 19  1  0  0  0  0
 21 20  1  0  0  0  0
 21 19  1  0  0  0  0
 22 23  1  0  0  0  0
 23 24  1  0  0  0  0
 24 27  1  6  0  0  0
 24 25  1  0  0  0  0
 26 25  1  0  0  0  0
 28 29  1  0  0  0  0
 28 27  1  0  0  0  0
 30 28  1  0  0  0  0
 31 28  1  0  0  0  0
 32 31  1  0  0  0  0
 33 32  1  0  0  0  0
M  END
>  <MODEL>
7

>  <REMARK>
 VINA RESULT:    -6.128      2.094      3.817
 INTER + INTRA:         -14.342
 INTER:                 -12.637
 INTRA:                  -1.705
 UNBOUND:                -1.945
  Name = CHEMBL439654
  21 active torsions:
  status: ('A' for Active; 'I' for Inactive)
    1  A    between atoms: C_1  and  C_2
    2  A    between atoms: C_2  and  C_3
    3  A    between atoms: C_3  and  C_4
    4  A    between atoms: C_4  and  C_5
    5  A    between atoms: C_5  and  C_6
    6  A    between atoms: C_6  and  C_7
    7  A    between atoms: C_7  and  C_8
    8  A    between atoms: C_8  and  C_9
    9  A    between atoms: N_11  and  C_12
   10  A    between atoms: C_12  and  C_13
   11  A    between atoms: C_16  and  O_17
   12  A    between atoms: O_17  and  C_18
   13  A    between atoms: C_18  and  C_19
   14  A    between atoms: C_19  and  O_20
   15  A    between atoms: C_19  and  C_21
   16  A    between atoms: C_21  and  N_22
   17  A    between atoms: N_22  and  C_23
   18  A    between atoms: C_23  and  C_24
   19  A    between atoms: C_24  and  C_25
   20  A    between atoms: C_26  and  O_27
   21  A    between atoms: O_27  and  C_28
                            x       y       z     vdW  Elec       q    Type
                         _______ _______ _______ _____ _____    ______ ____

>  <TORSDO>
F 18

>  <SCORE>
-6.128

>  <RMSD_LB>
2.094

>  <RMSD_UB>
3.817

$$$$
CHEMBL439654
 OpenBabel10162523363D

 33 33  0  0  1  0  0  0  0  0999 V2000
  140.4160  138.4500  154.6630 C   0  0  0  0  0  0  0  0  0  0  0  0
  139.6790  138.0520  155.7790 C   0  0  0  0  0  3  0  0  0  0  0  0
  138.3910  137.5270  155.6310 C   0  0  0  0  0  3  0  0  0  0  0  0
  137.8130  137.3910  154.3640 C   0  0  0  0  0  0  0  0  0  0  0  0
  138.5560  137.7740  153.2340 C   0  0  0  0  0  0  0  0  0  0  0  0
  139.8590  138.2680  153.3900 C   0  0  0  0  0  3  0  0  0  0  0  0
  138.1570  137.6830  151.9210 O   0  0  0  0  0  0  0  0  0  0  0  0
  138.8470  138.5130  150.9940 C   0  0  0  0  0  1  0  0  0  0  0  0
  141.7790  139.0590  154.8330 C   0  0  0  0  0  2  0  0  0  0  0  0
  144.1030  138.6200  154.1850 C   0  0  0  0  0  0  0  0  0  0  0  0
  144.4570  139.7650  154.4550 O   0  0  0  0  0  0  0  0  0  0  0  0
  142.8180  138.1650  154.3850 N   0  0  0  0  0  0  0  0  0  0  0  0
  142.6060  137.2170  154.2190 H   0  0  0  0  0  0  0  0  0  0  0  0
  145.0490  137.5890  153.6160 C   0  0  0  0  0  2  0  0  0  0  0  0
  146.1070  138.2490  152.7380 C   0  0  0  0  0  2  0  0  0  0  0  0
  147.5220  137.9880  153.2470 C   0  0  0  0  0  2  0  0  0  0  0  0
  148.3230  139.2900  153.2640 C   0  0  0  0  0  2  0  0  0  0  0  0
  148.0120  140.1280  154.5020 C   0  0  0  0  0  2  0  0  0  0  0  0
  147.8750  141.6060  154.1400 C   0  0  0  0  0  2  0  0  0  0  0  0
  146.0930  142.3130  152.5100 C   0  0  0  0  0  1  0  0  0  0  0  0
  147.5100  141.7860  152.6690 C   0  0  0  0  0  2  0  0  0  0  0  0
  136.5600  136.8870  154.1560 O   0  0  0  0  0  0  0  0  0  0  0  0
  136.1010  135.8210  154.9930 C   0  0  0  0  0  2  0  0  0  0  0  0
  134.6760  135.4560  154.5490 C   0  0  1  0  0  3  0  0  0  0  0  0
  134.0250  136.6200  154.0170 O   0  0  0  0  0  0  0  0  0  0  0  0
  133.8890  137.2660  154.7260 H   0  0  0  0  0  0  0  0  0  0  0  0
  134.6570  134.3410  153.4860 C   0  0  0  0  0  2  0  0  0  0  0  0
  135.6060  134.6070  152.4030 N   0  0  0  0  0  4  0  0  0  0  0  0
  136.4950  134.1560  152.6200 H   0  0  0  0  0  0  0  0  0  0  0  0
  135.7300  135.6150  152.3170 H   0  0  0  0  0  0  0  0  0  0  0  0
  135.1050  134.0870  151.1320 C   0  0  0  0  0  2  0  0  0  0  0  0
  133.5910  133.9130  151.2180 C   0  0  0  0  0  2  0  0  0  0  0  0
  132.9980  133.6300  149.8490 C   0  0  0  0  0  1  0  0  0  0  0  0
  1  9  1  0  0  0  0
  1  2  1  0  0  0  0
  3  2  2  0  0  0  0
  4  3  1  0  0  0  0
  5  6  1  0  0  0  0
  5  4  2  0  0  0  0
  6  1  2  0  0  0  0
  7  5  1  0  0  0  0
  8  7  1  0  0  0  0
 10 12  1  0  0  0  0
 10 11  2  0  0  0  0
 12  9  1  0  0  0  0
 13 12  1  0  0  0  0
 14 10  1  0  0  0  0
 15 16  1  0  0  0  0
 15 14  1  0  0  0  0
 16 17  1  0  0  0  0
 17 18  1  0  0  0  0
 19 18  1  0  0  0  0
 20 21  1  0  0  0  0
 21 19  1  0  0  0  0
 22  4  1  0  0  0  0
 22 23  1  0  0  0  0
 24 27  1  6  0  0  0
 24 23  1  0  0  0  0
 25 24  1  0  0  0  0
 25 26  1  0  0  0  0
 28 29  1  0  0  0  0
 28 27  1  0  0  0  0
 30 28  1  0  0  0  0
 31 32  1  0  0  0  0
 31 28  1  0  0  0  0
 33 32  1  0  0  0  0
M  END
>  <MODEL>
8

>  <REMARK>
 VINA RESULT:    -6.102      2.218     10.142
 INTER + INTRA:         -14.289
 INTER:                 -12.617
 INTRA:                  -1.672
 UNBOUND:                -1.945
  Name = CHEMBL439654
  21 active torsions:
  status: ('A' for Active; 'I' for Inactive)
    1  A    between atoms: C_1  and  C_2
    2  A    between atoms: C_2  and  C_3
    3  A    between atoms: C_3  and  C_4
    4  A    between atoms: C_4  and  C_5
    5  A    between atoms: C_5  and  C_6
    6  A    between atoms: C_6  and  C_7
    7  A    between atoms: C_7  and  C_8
    8  A    between atoms: C_8  and  C_9
    9  A    between atoms: N_11  and  C_12
   10  A    between atoms: C_12  and  C_13
   11  A    between atoms: C_16  and  O_17
   12  A    between atoms: O_17  and  C_18
   13  A    between atoms: C_18  and  C_19
   14  A    between atoms: C_19  and  O_20
   15  A    between atoms: C_19  and  C_21
   16  A    between atoms: C_21  and  N_22
   17  A    between atoms: N_22  and  C_23
   18  A    between atoms: C_23  and  C_24
   19  A    between atoms: C_24  and  C_25
   20  A    between atoms: C_26  and  O_27
   21  A    between atoms: O_27  and  C_28
                            x       y       z     vdW  Elec       q    Type
                         _______ _______ _______ _____ _____    ______ ____

>  <TORSDO>
F 18

>  <SCORE>
-6.102

>  <RMSD_LB>
2.218

>  <RMSD_UB>
10.142

$$$$
CHEMBL439654
 OpenBabel10162523363D

 33 33  0  0  1  0  0  0  0  0999 V2000
  137.9870  137.6440  155.4500 C   0  0  0  0  0  0  0  0  0  0  0  0
  139.1570  137.6700  156.2100 C   0  0  0  0  0  3  0  0  0  0  0  0
  140.3790  138.0180  155.6250 C   0  0  0  0  0  3  0  0  0  0  0  0
  140.4560  138.3480  154.2670 C   0  0  0  0  0  0  0  0  0  0  0  0
  139.2790  138.3410  153.4990 C   0  0  0  0  0  0  0  0  0  0  0  0
  138.0540  138.0230  154.1020 C   0  0  0  0  0  3  0  0  0  0  0  0
  139.1670  138.6650  152.1670 O   0  0  0  0  0  0  0  0  0  0  0  0
  138.5100  137.7110  151.3400 C   0  0  0  0  0  1  0  0  0  0  0  0
  136.6870  137.2210  156.0730 C   0  0  0  0  0  2  0  0  0  0  0  0
  135.1570  135.6870  154.9260 C   0  0  0  0  0  0  0  0  0  0  0  0
  134.4480  136.6040  154.5190 O   0  0  0  0  0  0  0  0  0  0  0  0
  136.3080  135.8940  155.6550 N   0  0  0  0  0  0  0  0  0  0  0  0
  136.8770  135.1270  155.8940 H   0  0  0  0  0  0  0  0  0  0  0  0
  134.8430  134.2340  154.6570 C   0  0  0  0  0  2  0  0  0  0  0  0
  134.2820  134.0510  153.2500 C   0  0  0  0  0  2  0  0  0  0  0  0
  135.3470  134.2450  152.1750 C   0  0  0  0  0  2  0  0  0  0  0  0
  134.7270  134.8740  150.9280 C   0  0  0  0  0  2  0  0  0  0  0  0
  133.2240  134.6200  150.8550 C   0  0  0  0  0  2  0  0  0  0  0  0
  132.8660  133.8180  149.6040 C   0  0  0  0  0  2  0  0  0  0  0  0
  134.3310  132.0160  148.6400 C   0  0  0  0  0  1  0  0  0  0  0  0
  134.1040  133.5130  148.7660 C   0  0  0  0  0  2  0  0  0  0  0  0
  141.6190  138.6960  153.6390 O   0  0  0  0  0  0  0  0  0  0  0  0
  142.8570  138.2180  154.1750 C   0  0  0  0  0  2  0  0  0  0  0  0
  143.6670  139.4360  154.6430 C   0  0  1  0  0  3  0  0  0  0  0  0
  143.4850  139.6200  156.0560 O   0  0  0  0  0  0  0  0  0  0  0  0
  142.5380  139.6050  156.2640 H   0  0  0  0  0  0  0  0  0  0  0  0
  145.1720  139.2940  154.3470 C   0  0  0  0  0  2  0  0  0  0  0  0
  145.8960  140.5410  154.6020 N   0  0  0  0  0  4  0  0  0  0  0  0
  145.8780  140.7390  155.6020 H   0  0  0  0  0  0  0  0  0  0  0  0
  145.4450  141.2930  154.0820 H   0  0  0  0  0  0  0  0  0  0  0  0
  147.2860  140.4350  154.1610 C   0  0  0  0  0  2  0  0  0  0  0  0
  147.4920  141.3080  152.9250 C   0  0  0  0  0  2  0  0  0  0  0  0
  146.3800  142.3340  152.7940 C   0  0  0  0  0  1  0  0  0  0  0  0
  1  9  1  0  0  0  0
  1  2  1  0  0  0  0
  3  2  2  0  0  0  0
  4  3  1  0  0  0  0
  5  6  1  0  0  0  0
  5  4  2  0  0  0  0
  6  1  2  0  0  0  0
  7  5  1  0  0  0  0
  8  7  1  0  0  0  0
 10 12  1  0  0  0  0
 11 10  2  0  0  0  0
 12 13  1  0  0  0  0
 12  9  1  0  0  0  0
 14 10  1  0  0  0  0
 15 14  1  0  0  0  0
 16 15  1  0  0  0  0
 17 16  1  0  0  0  0
 18 17  1  0  0  0  0
 19 18  1  0  0  0  0
 20 21  1  0  0  0  0
 21 19  1  0  0  0  0
 22 23  1  0  0  0  0
 22  4  1  0  0  0  0
 24 23  1  1  0  0  0
 24 25  1  0  0  0  0
 25 26  1  0  0  0  0
 27 28  1  0  0  0  0
 27 24  1  0  0  0  0
 28 29  1  0  0  0  0
 30 28  1  0  0  0  0
 31 28  1  0  0  0  0
 32 31  1  0  0  0  0
 33 32  1  0  0  0  0
M  END
>  <MODEL>
9

>  <REMARK>
 VINA RESULT:    -6.087      2.232      3.750
 INTER + INTRA:         -14.259
 INTER:                 -12.982
 INTRA:                  -1.277
 UNBOUND:                -1.945
  Name = CHEMBL439654
  21 active torsions:
  status: ('A' for Active; 'I' for Inactive)
    1  A    between atoms: C_1  and  C_2
    2  A    between atoms: C_2  and  C_3
    3  A    between atoms: C_3  and  C_4
    4  A    between atoms: C_4  and  C_5
    5  A    between atoms: C_5  and  C_6
    6  A    between atoms: C_6  and  C_7
    7  A    between atoms: C_7  and  C_8
    8  A    between atoms: C_8  and  C_9
    9  A    between atoms: N_11  and  C_12
   10  A    between atoms: C_12  and  C_13
   11  A    between atoms: C_16  and  O_17
   12  A    between atoms: O_17  and  C_18
   13  A    between atoms: C_18  and  C_19
   14  A    between atoms: C_19  and  O_20
   15  A    between atoms: C_19  and  C_21
   16  A    between atoms: C_21  and  N_22
   17  A    between atoms: N_22  and  C_23
   18  A    between atoms: C_23  and  C_24
   19  A    between atoms: C_24  and  C_25
   20  A    between atoms: C_26  and  O_27
   21  A    between atoms: O_27  and  C_28
                            x       y       z     vdW  Elec       q    Type
                         _______ _______ _______ _____ _____    ______ ____

>  <TORSDO>
F 18

>  <SCORE>
-6.087

>  <RMSD_LB>
2.232

>  <RMSD_UB>
3.750

$$$$
