CHEMBL171522
 OpenBabel10172500253D

 31 31  0  0  1  0  0  0  0  0999 V2000
  143.0210  137.3320  151.4970 C   0  0  0  0  0  0  0  0  0  0  0  0
  141.8560  137.5970  150.7760 C   0  0  0  0  0  3  0  0  0  0  0  0
  140.7100  138.0590  151.4280 C   0  0  0  0  0  3  0  0  0  0  0  0
  140.7050  138.2710  152.8130 C   0  0  0  0  0  0  0  0  0  0  0  0
  141.8810  138.0290  153.5420 C   0  0  0  0  0  0  0  0  0  0  0  0
  143.0330  137.5850  152.8750 C   0  0  0  0  0  3  0  0  0  0  0  0
  142.0770  138.2270  154.8870 O   0  0  0  0  0  0  0  0  0  0  0  0
  142.3750  139.5480  155.3110 C   0  0  0  0  0  1  0  0  0  0  0  0
  144.2430  136.8030  150.7950 C   0  0  0  0  0  2  0  0  0  0  0  0
  145.8280  138.6480  150.5130 C   0  0  0  0  0  0  0  0  0  0  0  0
  146.2550  138.5450  151.6550 O   0  0  0  0  0  0  0  0  0  0  0  0
  144.8630  137.8180  149.9860 N   0  0  0  0  0  0  0  0  0  0  0  0
  144.5960  137.9200  149.0450 H   0  0  0  0  0  0  0  0  0  0  0  0
  146.3270  139.7040  149.5500 C   0  0  0  0  0  2  0  0  0  0  0  0
  145.4310  140.9390  149.5850 C   0  0  0  0  0  2  0  0  0  0  0  0
  146.1400  142.1540  150.1780 C   0  0  0  0  0  2  0  0  0  0  0  0
  145.6220  142.4260  151.5920 C   0  0  0  0  0  2  0  0  0  0  0  0
  146.7330  142.3250  152.6340 C   0  0  0  0  0  2  0  0  0  0  0  0
  148.0750  142.0150  151.9690 C   0  0  0  0  0  2  0  0  0  0  0  0
  148.6510  141.6370  154.3900 C   0  0  0  0  0  1  0  0  0  0  0  0
  149.1980  141.9250  153.0010 C   0  0  0  0  0  2  0  0  0  0  0  0
  139.6160  138.7370  153.4930 O   0  0  0  0  0  0  0  0  0  0  0  0
  138.6370  137.7970  153.9470 C   0  0  0  0  0  2  0  0  0  0  0  0
  138.2670  138.1710  155.3900 C   0  0  1  0  0  3  0  0  0  0  0  0
  137.0360  138.9040  155.3810 O   0  0  0  0  0  0  0  0  0  0  0  0
  136.6750  138.9400  156.2810 H   0  0  0  0  0  0  0  0  0  0  0  0
  138.0860  136.9560  156.3080 C   0  0  0  0  0  2  0  0  0  0  0  0
  136.7810  137.0030  157.0970 C   0  0  0  0  0  2  0  0  0  0  0  0
  136.9740  137.6160  158.4740 C   0  0  0  0  0  2  0  0  0  0  0  0
  136.2470  138.8340  158.5510 O   0  0  0  0  0  0  0  0  0  0  0  0
  135.2960  138.6420  158.5810 H   0  0  0  0  0  0  0  0  0  0  0  0
  1  6  1  0  0  0  0
  2  3  1  0  0  0  0
  2  1  2  0  0  0  0
  3  4  2  0  0  0  0
  4 22  1  0  0  0  0
  4  5  1  0  0  0  0
  5  7  1  0  0  0  0
  6  5  2  0  0  0  0
  7  8  1  0  0  0  0
  9  1  1  0  0  0  0
 10 11  2  0  0  0  0
 12 10  1  0  0  0  0
 12  9  1  0  0  0  0
 13 12  1  0  0  0  0
 14 15  1  0  0  0  0
 14 10  1  0  0  0  0
 15 16  1  0  0  0  0
 16 17  1  0  0  0  0
 17 18  1  0  0  0  0
 19 18  1  0  0  0  0
 19 21  1  0  0  0  0
 21 20  1  0  0  0  0
 22 23  1  0  0  0  0
 24 23  1  6  0  0  0
 24 27  1  0  0  0  0
 25 24  1  0  0  0  0
 25 26  1  0  0  0  0
 27 28  1  0  0  0  0
 28 29  1  0  0  0  0
 29 30  1  0  0  0  0
 30 31  1  0  0  0  0
M  END
>  <MODEL>
1

>  <REMARK>
 VINA RESULT:    -6.575      0.000      0.000
 INTER + INTRA:         -14.607
 INTER:                 -13.042
 INTRA:                  -1.565
 UNBOUND:                -1.498
  Name = CHEMBL171522
  20 active torsions:
  status: ('A' for Active; 'I' for Inactive)
    1  A    between atoms: C_1  and  C_2
    2  A    between atoms: C_2  and  C_3
    3  A    between atoms: C_3  and  C_4
    4  A    between atoms: C_4  and  C_5
    5  A    between atoms: C_5  and  C_6
    6  A    between atoms: C_6  and  C_7
    7  A    between atoms: C_7  and  C_8
    8  A    between atoms: C_8  and  C_9
    9  A    between atoms: N_11  and  C_12
   10  A    between atoms: C_12  and  C_13
   11  A    between atoms: C_16  and  O_17
   12  A    between atoms: O_17  and  C_18
   13  A    between atoms: C_18  and  C_19
   14  A    between atoms: C_19  and  O_20
   15  A    between atoms: C_19  and  C_21
   16  A    between atoms: C_21  and  C_22
   17  A    between atoms: C_22  and  C_23
   18  A    between atoms: C_23  and  O_24
   19  A    between atoms: C_25  and  O_26
   20  A    between atoms: O_26  and  C_27
                            x       y       z     vdW  Elec       q    Type
                         _______ _______ _______ _____ _____    ______ ____

>  <TORSDO>
F 18

>  <SCORE>
-6.575

>  <RMSD_LB>
0.000

>  <RMSD_UB>
0.000

$$$$
CHEMBL171522
 OpenBabel10172500253D

 31 31  0  0  1  0  0  0  0  0999 V2000
  140.0190  137.7680  151.9650 C   0  0  0  0  0  0  0  0  0  0  0  0
  141.1010  137.3350  151.1980 C   0  0  0  0  0  3  0  0  0  0  0  0
  142.3950  137.3510  151.7250 C   0  0  0  0  0  3  0  0  0  0  0  0
  142.6350  137.7950  153.0320 C   0  0  0  0  0  0  0  0  0  0  0  0
  141.5480  138.2100  153.8190 C   0  0  0  0  0  0  0  0  0  0  0  0
  140.2500  138.1710  153.2870 C   0  0  0  0  0  3  0  0  0  0  0  0
  141.5840  138.6270  155.1270 O   0  0  0  0  0  0  0  0  0  0  0  0
  140.7100  137.9780  156.0380 C   0  0  0  0  0  1  0  0  0  0  0  0
  138.6330  137.7800  151.3810 C   0  0  0  0  0  2  0  0  0  0  0  0
  136.7890  136.3100  152.0440 C   0  0  0  0  0  0  0  0  0  0  0  0
  136.8280  135.6790  150.9970 O   0  0  0  0  0  0  0  0  0  0  0  0
  137.6560  137.3390  152.3400 N   0  0  0  0  0  0  0  0  0  0  0  0
  137.6060  137.7780  153.2200 H   0  0  0  0  0  0  0  0  0  0  0  0
  135.7810  136.0190  153.1340 C   0  0  0  0  0  2  0  0  0  0  0  0
  135.4320  134.5330  153.1700 C   0  0  0  0  0  2  0  0  0  0  0  0
  133.9250  134.2910  153.1690 C   0  0  0  0  0  2  0  0  0  0  0  0
  133.3190  134.7600  151.8450 C   0  0  0  0  0  2  0  0  0  0  0  0
  133.4860  133.7160  150.7430 C   0  0  0  0  0  2  0  0  0  0  0  0
  132.7940  134.1700  149.4560 C   0  0  0  0  0  2  0  0  0  0  0  0
  134.2290  132.2630  148.6550 C   0  0  0  0  0  1  0  0  0  0  0  0
  133.1140  133.2310  148.2940 C   0  0  0  0  0  2  0  0  0  0  0  0
  143.8780  137.8130  153.5970 O   0  0  0  0  0  0  0  0  0  0  0  0
  144.7330  138.9320  153.3370 C   0  0  0  0  0  2  0  0  0  0  0  0
  145.4530  139.2820  154.6480 C   0  0  1  0  0  3  0  0  0  0  0  0
  144.4830  139.4060  155.6950 O   0  0  0  0  0  0  0  0  0  0  0  0
  143.9870  140.2310  155.5810 H   0  0  0  0  0  0  0  0  0  0  0  0
  146.4810  138.2290  155.0790 C   0  0  0  0  0  2  0  0  0  0  0  0
  147.8420  138.8360  155.4060 C   0  0  0  0  0  2  0  0  0  0  0  0
  148.2600  139.8750  154.3780 C   0  0  0  0  0  2  0  0  0  0  0  0
  148.8700  140.9730  155.0440 O   0  0  0  0  0  0  0  0  0  0  0  0
  148.2320  141.7000  155.1200 H   0  0  0  0  0  0  0  0  0  0  0  0
  1  6  1  0  0  0  0
  2  3  1  0  0  0  0
  2  1  2  0  0  0  0
  3  4  2  0  0  0  0
  4 22  1  0  0  0  0
  4  5  1  0  0  0  0
  5  7  1  0  0  0  0
  6  5  2  0  0  0  0
  7  8  1  0  0  0  0
  9  1  1  0  0  0  0
  9 12  1  0  0  0  0
 10 12  1  0  0  0  0
 10 14  1  0  0  0  0
 11 10  2  0  0  0  0
 12 13  1  0  0  0  0
 14 15  1  0  0  0  0
 16 15  1  0  0  0  0
 17 16  1  0  0  0  0
 18 17  1  0  0  0  0
 19 18  1  0  0  0  0
 21 20  1  0  0  0  0
 21 19  1  0  0  0  0
 23 22  1  0  0  0  0
 24 23  1  6  0  0  0
 24 27  1  0  0  0  0
 24 25  1  0  0  0  0
 26 25  1  0  0  0  0
 27 28  1  0  0  0  0
 29 30  1  0  0  0  0
 29 28  1  0  0  0  0
 30 31  1  0  0  0  0
M  END
>  <MODEL>
2

>  <REMARK>
 VINA RESULT:    -6.425      4.528     10.292
 INTER + INTRA:         -14.307
 INTER:                 -12.925
 INTRA:                  -1.382
 UNBOUND:                -1.498
  Name = CHEMBL171522
  20 active torsions:
  status: ('A' for Active; 'I' for Inactive)
    1  A    between atoms: C_1  and  C_2
    2  A    between atoms: C_2  and  C_3
    3  A    between atoms: C_3  and  C_4
    4  A    between atoms: C_4  and  C_5
    5  A    between atoms: C_5  and  C_6
    6  A    between atoms: C_6  and  C_7
    7  A    between atoms: C_7  and  C_8
    8  A    between atoms: C_8  and  C_9
    9  A    between atoms: N_11  and  C_12
   10  A    between atoms: C_12  and  C_13
   11  A    between atoms: C_16  and  O_17
   12  A    between atoms: O_17  and  C_18
   13  A    between atoms: C_18  and  C_19
   14  A    between atoms: C_19  and  O_20
   15  A    between atoms: C_19  and  C_21
   16  A    between atoms: C_21  and  C_22
   17  A    between atoms: C_22  and  C_23
   18  A    between atoms: C_23  and  O_24
   19  A    between atoms: C_25  and  O_26
   20  A    between atoms: O_26  and  C_27
                            x       y       z     vdW  Elec       q    Type
                         _______ _______ _______ _____ _____    ______ ____

>  <TORSDO>
F 18

>  <SCORE>
-6.425

>  <RMSD_LB>
4.528

>  <RMSD_UB>
10.292

$$$$
CHEMBL171522
 OpenBabel10172500253D

 31 31  0  0  1  0  0  0  0  0999 V2000
  133.0740  134.3410  149.8340 C   0  0  0  0  0  0  0  0  0  0  0  0
  133.4990  133.0150  149.7590 C   0  0  0  0  0  3  0  0  0  0  0  0
  134.0310  132.5070  148.5700 C   0  0  0  0  0  3  0  0  0  0  0  0
  134.1550  133.3160  147.4330 C   0  0  0  0  0  0  0  0  0  0  0  0
  133.7500  134.6600  147.5080 C   0  0  0  0  0  0  0  0  0  0  0  0
  133.2370  135.1650  148.7120 C   0  0  0  0  0  3  0  0  0  0  0  0
  133.8410  135.6080  146.5190 O   0  0  0  0  0  0  0  0  0  0  0  0
  134.1050  136.9420  146.9220 C   0  0  0  0  0  1  0  0  0  0  0  0
  132.4710  134.8730  151.1060 C   0  0  0  0  0  2  0  0  0  0  0  0
  134.1640  135.2020  152.8450 C   0  0  0  0  0  0  0  0  0  0  0  0
  134.4250  136.3370  152.4700 O   0  0  0  0  0  0  0  0  0  0  0  0
  133.1960  134.4150  152.2610 N   0  0  0  0  0  0  0  0  0  0  0  0
  132.9980  133.5280  152.6390 H   0  0  0  0  0  0  0  0  0  0  0  0
  134.8780  134.5430  154.0060 C   0  0  0  0  0  2  0  0  0  0  0  0
  134.4550  135.1700  155.3320 C   0  0  0  0  0  2  0  0  0  0  0  0
  135.6240  135.3210  156.3020 C   0  0  0  0  0  2  0  0  0  0  0  0
  136.8290  135.9280  155.5810 C   0  0  0  0  0  2  0  0  0  0  0  0
  137.0920  137.3650  156.0260 C   0  0  0  0  0  2  0  0  0  0  0  0
  137.7370  138.1730  154.8990 C   0  0  0  0  0  2  0  0  0  0  0  0
  138.8340  137.8570  152.6560 C   0  0  0  0  0  1  0  0  0  0  0  0
  137.7170  137.4020  153.5810 C   0  0  0  0  0  2  0  0  0  0  0  0
  134.6830  132.8720  146.2550 O   0  0  0  0  0  0  0  0  0  0  0  0
  135.9730  132.2530  146.2730 C   0  0  0  0  0  2  0  0  0  0  0  0
  136.1970  131.6040  144.8990 C   0  0  1  0  0  3  0  0  0  0  0  0
  134.9840  131.6830  144.1410 O   0  0  0  0  0  0  0  0  0  0  0  0
  134.7690  132.6130  143.9710 H   0  0  0  0  0  0  0  0  0  0  0  0
  137.3090  132.2730  144.0810 C   0  0  0  0  0  2  0  0  0  0  0  0
  137.3850  131.7470  142.6510 C   0  0  0  0  0  2  0  0  0  0  0  0
  137.3660  132.8740  141.6320 C   0  0  0  0  0  2  0  0  0  0  0  0
  138.4180  132.6770  140.6970 O   0  0  0  0  0  0  0  0  0  0  0  0
  138.2970  131.8260  140.2470 H   0  0  0  0  0  0  0  0  0  0  0  0
  1  9  1  0  0  0  0
  2  1  1  0  0  0  0
  3  2  2  0  0  0  0
  4  5  2  0  0  0  0
  4  3  1  0  0  0  0
  5  6  1  0  0  0  0
  6  1  2  0  0  0  0
  7  8  1  0  0  0  0
  7  5  1  0  0  0  0
  9 12  1  0  0  0  0
 10 14  1  0  0  0  0
 11 10  2  0  0  0  0
 12 13  1  0  0  0  0
 12 10  1  0  0  0  0
 14 15  1  0  0  0  0
 15 16  1  0  0  0  0
 17 18  1  0  0  0  0
 17 16  1  0  0  0  0
 19 18  1  0  0  0  0
 20 21  1  0  0  0  0
 21 19  1  0  0  0  0
 22 23  1  0  0  0  0
 22  4  1  0  0  0  0
 24 27  1  6  0  0  0
 24 23  1  0  0  0  0
 25 24  1  0  0  0  0
 26 25  1  0  0  0  0
 28 27  1  0  0  0  0
 29 28  1  0  0  0  0
 30 29  1  0  0  0  0
 31 30  1  0  0  0  0
M  END
>  <MODEL>
3

>  <REMARK>
 VINA RESULT:    -6.410      8.194     12.456
 INTER + INTRA:         -14.279
 INTER:                 -12.982
 INTRA:                  -1.297
 UNBOUND:                -1.498
  Name = CHEMBL171522
  20 active torsions:
  status: ('A' for Active; 'I' for Inactive)
    1  A    between atoms: C_1  and  C_2
    2  A    between atoms: C_2  and  C_3
    3  A    between atoms: C_3  and  C_4
    4  A    between atoms: C_4  and  C_5
    5  A    between atoms: C_5  and  C_6
    6  A    between atoms: C_6  and  C_7
    7  A    between atoms: C_7  and  C_8
    8  A    between atoms: C_8  and  C_9
    9  A    between atoms: N_11  and  C_12
   10  A    between atoms: C_12  and  C_13
   11  A    between atoms: C_16  and  O_17
   12  A    between atoms: O_17  and  C_18
   13  A    between atoms: C_18  and  C_19
   14  A    between atoms: C_19  and  O_20
   15  A    between atoms: C_19  and  C_21
   16  A    between atoms: C_21  and  C_22
   17  A    between atoms: C_22  and  C_23
   18  A    between atoms: C_23  and  O_24
   19  A    between atoms: C_25  and  O_26
   20  A    between atoms: O_26  and  C_27
                            x       y       z     vdW  Elec       q    Type
                         _______ _______ _______ _____ _____    ______ ____

>  <TORSDO>
F 18

>  <SCORE>
-6.410

>  <RMSD_LB>
8.194

>  <RMSD_UB>
12.456

$$$$
CHEMBL171522
 OpenBabel10172500253D

 31 31  0  0  1  0  0  0  0  0999 V2000
  141.8300  137.8640  152.5450 C   0  0  0  0  0  0  0  0  0  0  0  0
  140.7020  137.7430  151.7330 C   0  0  0  0  0  3  0  0  0  0  0  0
  139.4210  137.8600  152.2790 C   0  0  0  0  0  3  0  0  0  0  0  0
  139.2390  138.1080  153.6450 C   0  0  0  0  0  0  0  0  0  0  0  0
  140.3710  138.2550  154.4660 C   0  0  0  0  0  0  0  0  0  0  0  0
  141.6530  138.1560  153.9040 C   0  0  0  0  0  3  0  0  0  0  0  0
  140.3880  138.5470  155.8070 O   0  0  0  0  0  0  0  0  0  0  0  0
  140.6800  137.4820  156.6990 C   0  0  0  0  0  1  0  0  0  0  0  0
  143.2060  137.7030  151.9590 C   0  0  0  0  0  2  0  0  0  0  0  0
  144.1080  139.9490  151.5800 C   0  0  0  0  0  0  0  0  0  0  0  0
  143.3950  140.1430  150.6050 O   0  0  0  0  0  0  0  0  0  0  0  0
  144.0660  138.7950  152.3320 N   0  0  0  0  0  0  0  0  0  0  0  0
  144.6300  138.7170  153.1340 H   0  0  0  0  0  0  0  0  0  0  0  0
  145.1150  140.9680  152.0700 C   0  0  0  0  0  2  0  0  0  0  0  0
  145.5020  141.9320  150.9510 C   0  0  0  0  0  2  0  0  0  0  0  0
  146.9870  142.2840  150.9770 C   0  0  0  0  0  2  0  0  0  0  0  0
  147.7530  141.2640  151.8210 C   0  0  0  0  0  2  0  0  0  0  0  0
  148.6000  141.9380  152.8970 C   0  0  0  0  0  2  0  0  0  0  0  0
  148.5750  141.1290  154.1950 C   0  0  0  0  0  2  0  0  0  0  0  0
  147.0470  139.2660  154.9200 C   0  0  0  0  0  1  0  0  0  0  0  0
  148.1310  139.6890  153.9430 C   0  0  0  0  0  2  0  0  0  0  0  0
  138.0090  138.2480  154.2220 O   0  0  0  0  0  0  0  0  0  0  0  0
  137.3150  137.0720  154.6500 C   0  0  0  0  0  2  0  0  0  0  0  0
  137.2180  137.1210  156.1830 C   0  0  1  0  0  3  0  0  0  0  0  0
  136.8150  138.4360  156.5840 O   0  0  0  0  0  0  0  0  0  0  0  0
  136.1910  138.7950  155.9340 H   0  0  0  0  0  0  0  0  0  0  0  0
  136.2110  136.1200  156.7620 C   0  0  0  0  0  2  0  0  0  0  0  0
  136.5770  135.6670  158.1720 C   0  0  0  0  0  2  0  0  0  0  0  0
  135.6130  136.2150  159.2120 C   0  0  0  0  0  2  0  0  0  0  0  0
  135.8240  137.6130  159.3550 O   0  0  0  0  0  0  0  0  0  0  0  0
  136.3050  137.7840  160.1810 H   0  0  0  0  0  0  0  0  0  0  0  0
  1  6  1  0  0  0  0
  2  3  1  0  0  0  0
  2  1  2  0  0  0  0
  3  4  2  0  0  0  0
  4 22  1  0  0  0  0
  4  5  1  0  0  0  0
  5  7  1  0  0  0  0
  6  5  2  0  0  0  0
  7  8  1  0  0  0  0
  9 12  1  0  0  0  0
  9  1  1  0  0  0  0
 10 14  1  0  0  0  0
 10 12  1  0  0  0  0
 11 10  2  0  0  0  0
 12 13  1  0  0  0  0
 15 16  1  0  0  0  0
 15 14  1  0  0  0  0
 16 17  1  0  0  0  0
 17 18  1  0  0  0  0
 18 19  1  0  0  0  0
 21 19  1  0  0  0  0
 21 20  1  0  0  0  0
 22 23  1  0  0  0  0
 24 23  1  6  0  0  0
 24 25  1  0  0  0  0
 24 27  1  0  0  0  0
 26 25  1  0  0  0  0
 27 28  1  0  0  0  0
 28 29  1  0  0  0  0
 29 30  1  0  0  0  0
 30 31  1  0  0  0  0
M  END
>  <MODEL>
4

>  <REMARK>
 VINA RESULT:    -6.374      1.696      2.131
 INTER + INTRA:         -14.206
 INTER:                 -12.488
 INTRA:                  -1.718
 UNBOUND:                -1.498
  Name = CHEMBL171522
  20 active torsions:
  status: ('A' for Active; 'I' for Inactive)
    1  A    between atoms: C_1  and  C_2
    2  A    between atoms: C_2  and  C_3
    3  A    between atoms: C_3  and  C_4
    4  A    between atoms: C_4  and  C_5
    5  A    between atoms: C_5  and  C_6
    6  A    between atoms: C_6  and  C_7
    7  A    between atoms: C_7  and  C_8
    8  A    between atoms: C_8  and  C_9
    9  A    between atoms: N_11  and  C_12
   10  A    between atoms: C_12  and  C_13
   11  A    between atoms: C_16  and  O_17
   12  A    between atoms: O_17  and  C_18
   13  A    between atoms: C_18  and  C_19
   14  A    between atoms: C_19  and  O_20
   15  A    between atoms: C_19  and  C_21
   16  A    between atoms: C_21  and  C_22
   17  A    between atoms: C_22  and  C_23
   18  A    between atoms: C_23  and  O_24
   19  A    between atoms: C_25  and  O_26
   20  A    between atoms: O_26  and  C_27
                            x       y       z     vdW  Elec       q    Type
                         _______ _______ _______ _____ _____    ______ ____

>  <TORSDO>
F 18

>  <SCORE>
-6.374

>  <RMSD_LB>
1.696

>  <RMSD_UB>
2.131

$$$$
CHEMBL171522
 OpenBabel10172500253D

 31 31  0  0  1  0  0  0  0  0999 V2000
  136.9740  136.8070  155.3860 C   0  0  0  0  0  0  0  0  0  0  0  0
  137.0350  136.7380  153.9940 C   0  0  0  0  0  3  0  0  0  0  0  0
  136.2130  135.8540  153.2920 C   0  0  0  0  0  3  0  0  0  0  0  0
  135.3080  135.0230  153.9650 C   0  0  0  0  0  0  0  0  0  0  0  0
  135.2240  135.1030  155.3650 C   0  0  0  0  0  0  0  0  0  0  0  0
  136.0400  136.0090  156.0590 C   0  0  0  0  0  3  0  0  0  0  0  0
  134.3680  134.4080  156.1840 O   0  0  0  0  0  0  0  0  0  0  0  0
  134.4080  134.7120  157.5700 C   0  0  0  0  0  1  0  0  0  0  0  0
  137.8860  137.7360  156.1400 C   0  0  0  0  0  2  0  0  0  0  0  0
  140.2080  138.1040  155.4500 C   0  0  0  0  0  0  0  0  0  0  0  0
  140.6520  137.3490  156.3050 O   0  0  0  0  0  0  0  0  0  0  0  0
  138.8620  138.3340  155.2680 N   0  0  0  0  0  0  0  0  0  0  0  0
  138.5640  138.9150  154.5310 H   0  0  0  0  0  0  0  0  0  0  0  0
  141.0990  138.8630  154.4920 C   0  0  0  0  0  2  0  0  0  0  0  0
  141.6910  137.9270  153.4410 C   0  0  0  0  0  2  0  0  0  0  0  0
  140.6930  137.5890  152.3370 C   0  0  0  0  0  2  0  0  0  0  0  0
  141.4310  137.3440  151.0190 C   0  0  0  0  0  2  0  0  0  0  0  0
  142.9430  137.2810  151.2180 C   0  0  0  0  0  2  0  0  0  0  0  0
  143.5710  136.2400  150.2900 C   0  0  0  0  0  2  0  0  0  0  0  0
  143.0010  134.5320  148.5310 C   0  0  0  0  0  1  0  0  0  0  0  0
  142.6220  135.8670  149.1520 C   0  0  0  0  0  2  0  0  0  0  0  0
  134.4710  134.1550  153.3220 O   0  0  0  0  0  0  0  0  0  0  0  0
  134.4450  134.1610  151.8910 C   0  0  0  0  0  2  0  0  0  0  0  0
  133.0850  134.7270  151.4540 C   0  0  1  0  0  3  0  0  0  0  0  0
  133.2720  136.0560  150.9510 O   0  0  0  0  0  0  0  0  0  0  0  0
  133.5470  136.6400  151.6750 H   0  0  0  0  0  0  0  0  0  0  0  0
  132.4040  133.8990  150.3580 C   0  0  0  0  0  2  0  0  0  0  0  0
  133.4020  133.2740  149.3870 C   0  0  0  0  0  2  0  0  0  0  0  0
  133.2830  133.8670  147.9930 C   0  0  0  0  0  2  0  0  0  0  0  0
  131.9810  133.6100  147.4840 O   0  0  0  0  0  0  0  0  0  0  0  0
  131.5000  134.4470  147.3880 H   0  0  0  0  0  0  0  0  0  0  0  0
  1  6  1  0  0  0  0
  1  9  1  0  0  0  0
  2  1  2  0  0  0  0
  3  4  2  0  0  0  0
  3  2  1  0  0  0  0
  4  5  1  0  0  0  0
  5  6  2  0  0  0  0
  5  7  1  0  0  0  0
  7  8  1  0  0  0  0
 10 11  2  0  0  0  0
 12 10  1  0  0  0  0
 12  9  1  0  0  0  0
 13 12  1  0  0  0  0
 14 10  1  0  0  0  0
 15 14  1  0  0  0  0
 16 15  1  0  0  0  0
 17 18  1  0  0  0  0
 17 16  1  0  0  0  0
 19 18  1  0  0  0  0
 20 21  1  0  0  0  0
 21 19  1  0  0  0  0
 22  4  1  0  0  0  0
 23 22  1  0  0  0  0
 24 27  1  6  0  0  0
 24 23  1  0  0  0  0
 25 24  1  0  0  0  0
 25 26  1  0  0  0  0
 28 27  1  0  0  0  0
 29 28  1  0  0  0  0
 30 29  1  0  0  0  0
 31 30  1  0  0  0  0
M  END
>  <MODEL>
5

>  <REMARK>
 VINA RESULT:    -6.322      4.878      8.087
 INTER + INTRA:         -14.102
 INTER:                 -12.802
 INTRA:                  -1.300
 UNBOUND:                -1.498
  Name = CHEMBL171522
  20 active torsions:
  status: ('A' for Active; 'I' for Inactive)
    1  A    between atoms: C_1  and  C_2
    2  A    between atoms: C_2  and  C_3
    3  A    between atoms: C_3  and  C_4
    4  A    between atoms: C_4  and  C_5
    5  A    between atoms: C_5  and  C_6
    6  A    between atoms: C_6  and  C_7
    7  A    between atoms: C_7  and  C_8
    8  A    between atoms: C_8  and  C_9
    9  A    between atoms: N_11  and  C_12
   10  A    between atoms: C_12  and  C_13
   11  A    between atoms: C_16  and  O_17
   12  A    between atoms: O_17  and  C_18
   13  A    between atoms: C_18  and  C_19
   14  A    between atoms: C_19  and  O_20
   15  A    between atoms: C_19  and  C_21
   16  A    between atoms: C_21  and  C_22
   17  A    between atoms: C_22  and  C_23
   18  A    between atoms: C_23  and  O_24
   19  A    between atoms: C_25  and  O_26
   20  A    between atoms: O_26  and  C_27
                            x       y       z     vdW  Elec       q    Type
                         _______ _______ _______ _____ _____    ______ ____

>  <TORSDO>
F 18

>  <SCORE>
-6.322

>  <RMSD_LB>
4.878

>  <RMSD_UB>
8.087

$$$$
CHEMBL171522
 OpenBabel10172500253D

 31 31  0  0  1  0  0  0  0  0999 V2000
  133.0820  134.2590  149.9240 C   0  0  0  0  0  0  0  0  0  0  0  0
  133.5610  132.9560  149.7860 C   0  0  0  0  0  3  0  0  0  0  0  0
  134.1380  132.5370  148.5840 C   0  0  0  0  0  3  0  0  0  0  0  0
  134.2550  133.4130  147.4970 C   0  0  0  0  0  0  0  0  0  0  0  0
  133.7970  134.7340  147.6370 C   0  0  0  0  0  0  0  0  0  0  0  0
  133.2370  135.1510  148.8540 C   0  0  0  0  0  3  0  0  0  0  0  0
  133.8720  135.7390  146.7040 O   0  0  0  0  0  0  0  0  0  0  0  0
  132.9260  136.7920  146.8080 C   0  0  0  0  0  1  0  0  0  0  0  0
  132.4300  134.6950  151.2090 C   0  0  0  0  0  2  0  0  0  0  0  0
  134.0760  135.4010  152.8800 C   0  0  0  0  0  0  0  0  0  0  0  0
  134.0860  136.5570  152.4790 O   0  0  0  0  0  0  0  0  0  0  0  0
  133.2720  134.4200  152.3430 N   0  0  0  0  0  0  0  0  0  0  0  0
  133.2720  133.5200  152.7400 H   0  0  0  0  0  0  0  0  0  0  0  0
  134.9480  134.9270  154.0220 C   0  0  0  0  0  2  0  0  0  0  0  0
  136.1120  135.8880  154.2540 C   0  0  0  0  0  2  0  0  0  0  0  0
  136.8660  135.5850  155.5460 C   0  0  0  0  0  2  0  0  0  0  0  0
  136.2110  136.3160  156.7200 C   0  0  0  0  0  2  0  0  0  0  0  0
  136.9110  136.0100  158.0420 C   0  0  0  0  0  2  0  0  0  0  0  0
  136.1830  134.8970  158.7970 C   0  0  0  0  0  2  0  0  0  0  0  0
  134.0690  135.7550  159.8610 C   0  0  0  0  0  1  0  0  0  0  0  0
  134.6670  135.0340  158.6630 C   0  0  0  0  0  2  0  0  0  0  0  0
  134.8270  133.0570  146.3090 O   0  0  0  0  0  0  0  0  0  0  0  0
  136.1940  132.6320  146.3070 C   0  0  0  0  0  2  0  0  0  0  0  0
  136.4810  131.9970  144.9380 C   0  0  1  0  0  3  0  0  0  0  0  0
  135.7440  130.7740  144.8260 O   0  0  0  0  0  0  0  0  0  0  0  0
  136.3620  130.0290  144.7630 H   0  0  0  0  0  0  0  0  0  0  0  0
  136.0910  132.8930  143.7560 C   0  0  0  0  0  2  0  0  0  0  0  0
  137.1080  134.0000  143.4960 C   0  0  0  0  0  2  0  0  0  0  0  0
  136.5670  135.3680  143.8770 C   0  0  0  0  0  2  0  0  0  0  0  0
  135.1910  135.2500  144.2120 O   0  0  0  0  0  0  0  0  0  0  0  0
  134.8950  136.0610  144.6550 H   0  0  0  0  0  0  0  0  0  0  0  0
  1  9  1  0  0  0  0
  2  1  1  0  0  0  0
  3  2  2  0  0  0  0
  4  5  2  0  0  0  0
  4  3  1  0  0  0  0
  5  6  1  0  0  0  0
  6  1  2  0  0  0  0
  7  8  1  0  0  0  0
  7  5  1  0  0  0  0
  9 12  1  0  0  0  0
 10 14  1  0  0  0  0
 11 10  2  0  0  0  0
 12 13  1  0  0  0  0
 12 10  1  0  0  0  0
 14 15  1  0  0  0  0
 15 16  1  0  0  0  0
 16 17  1  0  0  0  0
 17 18  1  0  0  0  0
 18 19  1  0  0  0  0
 21 19  1  0  0  0  0
 21 20  1  0  0  0  0
 22  4  1  0  0  0  0
 23 22  1  0  0  0  0
 24 27  1  6  0  0  0
 24 23  1  0  0  0  0
 25 24  1  0  0  0  0
 26 25  1  0  0  0  0
 28 27  1  0  0  0  0
 28 29  1  0  0  0  0
 29 30  1  0  0  0  0
 30 31  1  0  0  0  0
M  END
>  <MODEL>
6

>  <REMARK>
 VINA RESULT:    -6.297      9.020     12.600
 INTER + INTRA:         -14.054
 INTER:                 -12.329
 INTRA:                  -1.724
 UNBOUND:                -1.498
  Name = CHEMBL171522
  20 active torsions:
  status: ('A' for Active; 'I' for Inactive)
    1  A    between atoms: C_1  and  C_2
    2  A    between atoms: C_2  and  C_3
    3  A    between atoms: C_3  and  C_4
    4  A    between atoms: C_4  and  C_5
    5  A    between atoms: C_5  and  C_6
    6  A    between atoms: C_6  and  C_7
    7  A    between atoms: C_7  and  C_8
    8  A    between atoms: C_8  and  C_9
    9  A    between atoms: N_11  and  C_12
   10  A    between atoms: C_12  and  C_13
   11  A    between atoms: C_16  and  O_17
   12  A    between atoms: O_17  and  C_18
   13  A    between atoms: C_18  and  C_19
   14  A    between atoms: C_19  and  O_20
   15  A    between atoms: C_19  and  C_21
   16  A    between atoms: C_21  and  C_22
   17  A    between atoms: C_22  and  C_23
   18  A    between atoms: C_23  and  O_24
   19  A    between atoms: C_25  and  O_26
   20  A    between atoms: O_26  and  C_27
                            x       y       z     vdW  Elec       q    Type
                         _______ _______ _______ _____ _____    ______ ____

>  <TORSDO>
F 18

>  <SCORE>
-6.297

>  <RMSD_LB>
9.020

>  <RMSD_UB>
12.600

$$$$
CHEMBL171522
 OpenBabel10172500253D

 31 31  0  0  1  0  0  0  0  0999 V2000
  136.3530  136.4490  155.4020 C   0  0  0  0  0  0  0  0  0  0  0  0
  136.9540  136.7780  154.1870 C   0  0  0  0  0  3  0  0  0  0  0  0
  138.0760  137.6100  154.1540 C   0  0  0  0  0  3  0  0  0  0  0  0
  138.6260  138.1260  155.3340 C   0  0  0  0  0  0  0  0  0  0  0  0
  138.0410  137.7800  156.5640 C   0  0  0  0  0  0  0  0  0  0  0  0
  136.9270  136.9280  156.5880 C   0  0  0  0  0  3  0  0  0  0  0  0
  138.4680  138.1480  157.8160 O   0  0  0  0  0  0  0  0  0  0  0  0
  137.6350  137.8030  158.9120 C   0  0  0  0  0  1  0  0  0  0  0  0
  135.1250  135.5810  155.4300 C   0  0  0  0  0  2  0  0  0  0  0  0
  134.1310  134.2780  153.6100 C   0  0  0  0  0  0  0  0  0  0  0  0
  134.2250  133.2240  154.2230 O   0  0  0  0  0  0  0  0  0  0  0  0
  134.5150  135.4940  154.1300 N   0  0  0  0  0  0  0  0  0  0  0  0
  134.3690  136.3150  153.6060 H   0  0  0  0  0  0  0  0  0  0  0  0
  133.5710  134.3560  152.2060 C   0  0  0  0  0  2  0  0  0  0  0  0
  134.5930  133.8630  151.1840 C   0  0  0  0  0  2  0  0  0  0  0  0
  133.9320  133.2340  149.9600 C   0  0  0  0  0  2  0  0  0  0  0  0
  134.1770  134.1040  148.7260 C   0  0  0  0  0  2  0  0  0  0  0  0
  135.4030  133.6430  147.9400 C   0  0  0  0  0  2  0  0  0  0  0  0
  136.4550  134.7520  147.8760 C   0  0  0  0  0  2  0  0  0  0  0  0
  137.4230  135.8760  149.9080 C   0  0  0  0  0  1  0  0  0  0  0  0
  137.4520  134.6380  149.0270 C   0  0  0  0  0  2  0  0  0  0  0  0
  139.7310  138.9280  155.3550 O   0  0  0  0  0  0  0  0  0  0  0  0
  140.9990  138.3580  155.0140 C   0  0  0  0  0  2  0  0  0  0  0  0
  141.3650  138.8460  153.6040 C   0  0  1  0  0  3  0  0  0  0  0  0
  142.6540  139.4690  153.6460 O   0  0  0  0  0  0  0  0  0  0  0  0
  143.0140  139.4090  154.5450 H   0  0  0  0  0  0  0  0  0  0  0  0
  141.4180  137.7210  152.5640 C   0  0  0  0  0  2  0  0  0  0  0  0
  140.7010  138.0840  151.2670 C   0  0  0  0  0  2  0  0  0  0  0  0
  139.8680  139.3470  151.4160 C   0  0  0  0  0  2  0  0  0  0  0  0
  138.5410  139.0860  150.9790 O   0  0  0  0  0  0  0  0  0  0  0  0
  137.9190  139.2850  151.6970 H   0  0  0  0  0  0  0  0  0  0  0  0
  1  9  1  0  0  0  0
  1  6  1  0  0  0  0
  2  1  2  0  0  0  0
  3  2  1  0  0  0  0
  3  4  2  0  0  0  0
  4 22  1  0  0  0  0
  4  5  1  0  0  0  0
  5  6  2  0  0  0  0
  5  7  1  0  0  0  0
  7  8  1  0  0  0  0
 10 12  1  0  0  0  0
 10 11  2  0  0  0  0
 12  9  1  0  0  0  0
 13 12  1  0  0  0  0
 14 10  1  0  0  0  0
 15 14  1  0  0  0  0
 16 15  1  0  0  0  0
 17 16  1  0  0  0  0
 18 17  1  0  0  0  0
 19 18  1  0  0  0  0
 19 21  1  0  0  0  0
 21 20  1  0  0  0  0
 23 22  1  0  0  0  0
 24 27  1  6  0  0  0
 24 25  1  0  0  0  0
 24 23  1  0  0  0  0
 25 26  1  0  0  0  0
 28 29  1  0  0  0  0
 28 27  1  0  0  0  0
 30 29  1  0  0  0  0
 30 31  1  0  0  0  0
M  END
>  <MODEL>
7

>  <REMARK>
 VINA RESULT:    -6.210      4.641      9.855
 INTER + INTRA:         -13.879
 INTER:                 -11.997
 INTRA:                  -1.881
 UNBOUND:                -1.498
  Name = CHEMBL171522
  20 active torsions:
  status: ('A' for Active; 'I' for Inactive)
    1  A    between atoms: C_1  and  C_2
    2  A    between atoms: C_2  and  C_3
    3  A    between atoms: C_3  and  C_4
    4  A    between atoms: C_4  and  C_5
    5  A    between atoms: C_5  and  C_6
    6  A    between atoms: C_6  and  C_7
    7  A    between atoms: C_7  and  C_8
    8  A    between atoms: C_8  and  C_9
    9  A    between atoms: N_11  and  C_12
   10  A    between atoms: C_12  and  C_13
   11  A    between atoms: C_16  and  O_17
   12  A    between atoms: O_17  and  C_18
   13  A    between atoms: C_18  and  C_19
   14  A    between atoms: C_19  and  O_20
   15  A    between atoms: C_19  and  C_21
   16  A    between atoms: C_21  and  C_22
   17  A    between atoms: C_22  and  C_23
   18  A    between atoms: C_23  and  O_24
   19  A    between atoms: C_25  and  O_26
   20  A    between atoms: O_26  and  C_27
                            x       y       z     vdW  Elec       q    Type
                         _______ _______ _______ _____ _____    ______ ____

>  <TORSDO>
F 18

>  <SCORE>
-6.210

>  <RMSD_LB>
4.641

>  <RMSD_UB>
9.855

$$$$
CHEMBL171522
 OpenBabel10172500253D

 31 31  0  0  1  0  0  0  0  0999 V2000
  140.5000  137.8080  152.1680 C   0  0  0  0  0  0  0  0  0  0  0  0
  139.2180  137.5440  151.6860 C   0  0  0  0  0  3  0  0  0  0  0  0
  138.1160  137.5880  152.5430 C   0  0  0  0  0  3  0  0  0  0  0  0
  138.2700  137.9030  153.8990 C   0  0  0  0  0  0  0  0  0  0  0  0
  139.5550  138.1930  154.3880 C   0  0  0  0  0  0  0  0  0  0  0  0
  140.6530  138.1660  153.5140 C   0  0  0  0  0  3  0  0  0  0  0  0
  139.8900  138.5670  155.6660 O   0  0  0  0  0  0  0  0  0  0  0  0
  140.4910  137.5830  156.4930 C   0  0  0  0  0  1  0  0  0  0  0  0
  141.6880  137.7250  151.2480 C   0  0  0  0  0  2  0  0  0  0  0  0
  144.1020  137.6290  151.6500 C   0  0  0  0  0  0  0  0  0  0  0  0
  144.2650  136.7090  150.8600 O   0  0  0  0  0  0  0  0  0  0  0  0
  142.8800  138.2190  151.8850 N   0  0  0  0  0  0  0  0  0  0  0  0
  142.8210  138.9880  152.4960 H   0  0  0  0  0  0  0  0  0  0  0  0
  145.2390  138.2250  152.4520 C   0  0  0  0  0  2  0  0  0  0  0  0
  144.8690  138.3260  153.9290 C   0  0  0  0  0  2  0  0  0  0  0  0
  145.3370  139.6370  154.5560 C   0  0  0  0  0  2  0  0  0  0  0  0
  146.8660  139.6850  154.5900 C   0  0  0  0  0  2  0  0  0  0  0  0
  147.4090  140.9530  153.9360 C   0  0  0  0  0  2  0  0  0  0  0  0
  146.2920  141.9750  153.7200 C   0  0  0  0  0  2  0  0  0  0  0  0
  147.3560  141.8580  151.4420 C   0  0  0  0  0  1  0  0  0  0  0  0
  146.1650  142.3550  152.2450 C   0  0  0  0  0  2  0  0  0  0  0  0
  137.2220  137.9760  154.7730 O   0  0  0  0  0  0  0  0  0  0  0  0
  136.5140  136.7750  155.0950 C   0  0  0  0  0  2  0  0  0  0  0  0
  136.6070  136.5740  156.6160 C   0  0  1  0  0  3  0  0  0  0  0  0
  137.6490  135.6340  156.9010 O   0  0  0  0  0  0  0  0  0  0  0  0
  138.4980  136.0990  156.9560 H   0  0  0  0  0  0  0  0  0  0  0  0
  136.9130  137.8660  157.3840 C   0  0  0  0  0  2  0  0  0  0  0  0
  137.3020  137.6080  158.8360 C   0  0  0  0  0  2  0  0  0  0  0  0
  136.2900  138.1960  159.8060 C   0  0  0  0  0  2  0  0  0  0  0  0
  136.6920  139.5130  160.1600 O   0  0  0  0  0  0  0  0  0  0  0  0
  136.0940  139.8620  160.8400 H   0  0  0  0  0  0  0  0  0  0  0  0
  1  6  1  0  0  0  0
  2  1  2  0  0  0  0
  2  3  1  0  0  0  0
  3  4  2  0  0  0  0
  4  5  1  0  0  0  0
  4 22  1  0  0  0  0
  5  7  1  0  0  0  0
  6  5  2  0  0  0  0
  7  8  1  0  0  0  0
  9 12  1  0  0  0  0
  9  1  1  0  0  0  0
 10 12  1  0  0  0  0
 10 14  1  0  0  0  0
 11 10  2  0  0  0  0
 12 13  1  0  0  0  0
 14 15  1  0  0  0  0
 15 16  1  0  0  0  0
 16 17  1  0  0  0  0
 18 17  1  0  0  0  0
 19 18  1  0  0  0  0
 20 21  1  0  0  0  0
 21 19  1  0  0  0  0
 22 23  1  0  0  0  0
 24 23  1  6  0  0  0
 24 25  1  0  0  0  0
 24 27  1  0  0  0  0
 25 26  1  0  0  0  0
 27 28  1  0  0  0  0
 28 29  1  0  0  0  0
 29 30  1  0  0  0  0
 30 31  1  0  0  0  0
M  END
>  <MODEL>
8

>  <REMARK>
 VINA RESULT:    -6.177      1.815      2.965
 INTER + INTRA:         -13.814
 INTER:                 -12.085
 INTRA:                  -1.729
 UNBOUND:                -1.498
  Name = CHEMBL171522
  20 active torsions:
  status: ('A' for Active; 'I' for Inactive)
    1  A    between atoms: C_1  and  C_2
    2  A    between atoms: C_2  and  C_3
    3  A    between atoms: C_3  and  C_4
    4  A    between atoms: C_4  and  C_5
    5  A    between atoms: C_5  and  C_6
    6  A    between atoms: C_6  and  C_7
    7  A    between atoms: C_7  and  C_8
    8  A    between atoms: C_8  and  C_9
    9  A    between atoms: N_11  and  C_12
   10  A    between atoms: C_12  and  C_13
   11  A    between atoms: C_16  and  O_17
   12  A    between atoms: O_17  and  C_18
   13  A    between atoms: C_18  and  C_19
   14  A    between atoms: C_19  and  O_20
   15  A    between atoms: C_19  and  C_21
   16  A    between atoms: C_21  and  C_22
   17  A    between atoms: C_22  and  C_23
   18  A    between atoms: C_23  and  O_24
   19  A    between atoms: C_25  and  O_26
   20  A    between atoms: O_26  and  C_27
                            x       y       z     vdW  Elec       q    Type
                         _______ _______ _______ _____ _____    ______ ____

>  <TORSDO>
F 18

>  <SCORE>
-6.177

>  <RMSD_LB>
1.815

>  <RMSD_UB>
2.965

$$$$
CHEMBL171522
 OpenBabel10172500253D

 31 31  0  0  1  0  0  0  0  0999 V2000
  139.8380  137.7680  152.1690 C   0  0  0  0  0  0  0  0  0  0  0  0
  140.9450  137.3900  151.4080 C   0  0  0  0  0  3  0  0  0  0  0  0
  142.2290  137.4320  151.9570 C   0  0  0  0  0  3  0  0  0  0  0  0
  142.4350  137.8460  153.2790 C   0  0  0  0  0  0  0  0  0  0  0  0
  141.3220  138.2050  154.0590 C   0  0  0  0  0  0  0  0  0  0  0  0
  140.0350  138.1400  153.5050 C   0  0  0  0  0  3  0  0  0  0  0  0
  141.3250  138.5860  155.3790 O   0  0  0  0  0  0  0  0  0  0  0  0
  140.5840  137.7840  156.2860 C   0  0  0  0  0  1  0  0  0  0  0  0
  138.4610  137.7530  151.5620 C   0  0  0  0  0  2  0  0  0  0  0  0
  136.5370  136.3670  152.1760 C   0  0  0  0  0  0  0  0  0  0  0  0
  136.5170  135.7990  151.0930 O   0  0  0  0  0  0  0  0  0  0  0  0
  137.4740  137.3190  152.5140 N   0  0  0  0  0  0  0  0  0  0  0  0
  137.4680  137.7060  153.4190 H   0  0  0  0  0  0  0  0  0  0  0  0
  135.5300  136.0760  153.2680 C   0  0  0  0  0  2  0  0  0  0  0  0
  136.2110  135.4510  154.4830 C   0  0  0  0  0  2  0  0  0  0  0  0
  136.0850  136.3220  155.7310 C   0  0  0  0  0  2  0  0  0  0  0  0
  137.1360  135.9130  156.7640 C   0  0  0  0  0  2  0  0  0  0  0  0
  136.4990  135.4840  158.0830 C   0  0  0  0  0  2  0  0  0  0  0  0
  136.5210  136.6310  159.0960 C   0  0  0  0  0  2  0  0  0  0  0  0
  134.2770  135.5790  159.5320 C   0  0  0  0  0  1  0  0  0  0  0  0
  135.3190  136.5640  160.0360 C   0  0  0  0  0  2  0  0  0  0  0  0
  143.6670  137.8870  153.8660 O   0  0  0  0  0  0  0  0  0  0  0  0
  144.5990  138.8840  153.4330 C   0  0  0  0  0  2  0  0  0  0  0  0
  145.1680  139.5640  154.6870 C   0  0  1  0  0  3  0  0  0  0  0  0
  144.2360  139.4130  155.7650 O   0  0  0  0  0  0  0  0  0  0  0  0
  143.3980  139.8430  155.5310 H   0  0  0  0  0  0  0  0  0  0  0  0
  146.5120  138.9810  155.1410 C   0  0  0  0  0  2  0  0  0  0  0  0
  147.2750  138.3080  154.0040 C   0  0  0  0  0  2  0  0  0  0  0  0
  148.4030  139.1830  153.4830 C   0  0  0  0  0  2  0  0  0  0  0  0
  148.8100  140.0800  154.5070 O   0  0  0  0  0  0  0  0  0  0  0  0
  149.3440  140.7930  154.1200 H   0  0  0  0  0  0  0  0  0  0  0  0
  1  6  1  0  0  0  0
  2  3  1  0  0  0  0
  2  1  2  0  0  0  0
  3  4  2  0  0  0  0
  4 22  1  0  0  0  0
  4  5  1  0  0  0  0
  5  7  1  0  0  0  0
  6  5  2  0  0  0  0
  7  8  1  0  0  0  0
  9  1  1  0  0  0  0
  9 12  1  0  0  0  0
 10 12  1  0  0  0  0
 10 14  1  0  0  0  0
 11 10  2  0  0  0  0
 12 13  1  0  0  0  0
 14 15  1  0  0  0  0
 15 16  1  0  0  0  0
 16 17  1  0  0  0  0
 17 18  1  0  0  0  0
 18 19  1  0  0  0  0
 19 21  1  0  0  0  0
 20 21  1  0  0  0  0
 23 22  1  0  0  0  0
 24 23  1  6  0  0  0
 24 27  1  0  0  0  0
 24 25  1  0  0  0  0
 26 25  1  0  0  0  0
 28 27  1  0  0  0  0
 29 28  1  0  0  0  0
 29 30  1  0  0  0  0
 31 30  1  0  0  0  0
M  END
>  <MODEL>
9

>  <REMARK>
 VINA RESULT:    -6.129      3.229      9.530
 INTER + INTRA:         -13.718
 INTER:                 -12.220
 INTRA:                  -1.498
 UNBOUND:                -1.498
  Name = CHEMBL171522
  20 active torsions:
  status: ('A' for Active; 'I' for Inactive)
    1  A    between atoms: C_1  and  C_2
    2  A    between atoms: C_2  and  C_3
    3  A    between atoms: C_3  and  C_4
    4  A    between atoms: C_4  and  C_5
    5  A    between atoms: C_5  and  C_6
    6  A    between atoms: C_6  and  C_7
    7  A    between atoms: C_7  and  C_8
    8  A    between atoms: C_8  and  C_9
    9  A    between atoms: N_11  and  C_12
   10  A    between atoms: C_12  and  C_13
   11  A    between atoms: C_16  and  O_17
   12  A    between atoms: O_17  and  C_18
   13  A    between atoms: C_18  and  C_19
   14  A    between atoms: C_19  and  O_20
   15  A    between atoms: C_19  and  C_21
   16  A    between atoms: C_21  and  C_22
   17  A    between atoms: C_22  and  C_23
   18  A    between atoms: C_23  and  O_24
   19  A    between atoms: C_25  and  O_26
   20  A    between atoms: O_26  and  C_27
                            x       y       z     vdW  Elec       q    Type
                         _______ _______ _______ _____ _____    ______ ____

>  <TORSDO>
F 18

>  <SCORE>
-6.129

>  <RMSD_LB>
3.229

>  <RMSD_UB>
9.530

$$$$
