CHEMBL4532956
 OpenBabel10172500123D

 27 28  0  0  0  0  0  0  0  0999 V2000
  134.4380  134.3300  153.3820 C   0  0  0  0  0  0  0  0  0  0  0  0
  133.9750  133.2280  153.6500 O   0  0  0  0  0  0  0  0  0  0  0  0
  133.9630  135.1620  152.4000 N   0  0  0  0  0  0  0  0  0  0  0  0
  134.3990  136.0340  152.2650 H   0  0  0  0  0  0  0  0  0  0  0  0
  135.6280  136.1670  154.5360 C   0  0  0  0  0  3  0  0  0  0  0  0
  135.6160  134.8990  154.0880 C   0  0  0  0  0  3  0  0  0  0  0  0
  137.6610  137.1720  157.5490 C   0  0  0  0  0  0  0  0  0  0  0  0
  138.7960  137.7310  156.9730 C   0  0  0  0  0  3  0  0  0  0  0  0
  138.8970  137.8440  155.5830 C   0  0  0  0  0  3  0  0  0  0  0  0
  137.8710  137.3860  154.7470 C   0  0  0  0  0  0  0  0  0  0  0  0
  136.7400  136.7590  155.3140 C   0  0  0  0  0  0  0  0  0  0  0  0
  136.6420  136.6940  156.7190 C   0  0  0  0  0  3  0  0  0  0  0  0
  137.8080  138.1290  159.7210 C   0  0  0  0  0  1  0  0  0  0  0  0
  137.4360  137.0330  158.8910 O   0  0  0  0  0  0  0  0  0  0  0  0
  137.8950  137.5190  153.3820 O   0  0  0  0  0  0  0  0  0  0  0  0
  139.0290  138.1390  152.7900 C   0  0  0  0  0  1  0  0  0  0  0  0
  132.8470  134.8020  151.5580 C   0  0  0  0  0  2  0  0  0  0  0  0
  133.3000  134.3160  150.2080 C   0  0  0  0  0  0  0  0  0  0  0  0
  133.7660  133.0050  150.0540 C   0  0  0  0  0  3  0  0  0  0  0  0
  134.1850  132.5440  148.8050 C   0  0  0  0  0  3  0  0  0  0  0  0
  134.1220  133.3820  147.6900 C   0  0  0  0  0  0  0  0  0  0  0  0
  133.6300  134.6850  147.8140 C   0  0  0  0  0  0  0  0  0  0  0  0
  133.2380  135.1460  149.0790 C   0  0  0  0  0  3  0  0  0  0  0  0
  134.5730  132.9080  146.4890 O   0  0  0  0  0  0  0  0  0  0  0  0
  135.3080  133.3130  146.0710 H   0  0  0  0  0  0  0  0  0  0  0  0
  133.5170  135.6240  146.8220 O   0  0  0  0  0  0  0  0  0  0  0  0
  132.6330  136.7060  147.0850 C   0  0  0  0  0  1  0  0  0  0  0  0
  1  2  2  0  0  0  0
  1  6  1  0  0  0  0
  3  1  1  0  0  0  0
  4  3  1  0  0  0  0
  5 11  1  0  0  0  0
  6  5  2  0  0  0  0
  7 14  1  0  0  0  0
  8  7  1  0  0  0  0
  9  8  2  0  0  0  0
 10 11  2  0  0  0  0
 10  9  1  0  0  0  0
 11 12  1  0  0  0  0
 12  7  2  0  0  0  0
 14 13  1  0  0  0  0
 15 10  1  0  0  0  0
 16 15  1  0  0  0  0
 17  3  1  0  0  0  0
 18 17  1  0  0  0  0
 19 18  1  0  0  0  0
 20 19  2  0  0  0  0
 21 22  2  0  0  0  0
 21 20  1  0  0  0  0
 22 23  1  0  0  0  0
 23 18  2  0  0  0  0
 24 21  1  0  0  0  0
 25 24  1  0  0  0  0
 26 27  1  0  0  0  0
 26 22  1  0  0  0  0
M  END
>  <MODEL>
1

>  <REMARK>
 VINA RESULT:    -7.322      0.000      0.000
 INTER + INTRA:         -11.293
 INTER:                 -10.588
 INTRA:                  -0.705
 UNBOUND:                -0.761
  Name = CHEMBL4532956
  11 active torsions:
  status: ('A' for Active; 'I' for Inactive)
    1  A    between atoms: C_1  and  O_2
    2  A    between atoms: O_2  and  C_3
    3  A    between atoms: C_6  and  O_7
    4  A    between atoms: O_7  and  C_8
    5  A    between atoms: C_9  and  C_10
    6  A    between atoms: C_11  and  C_12
    7  A    between atoms: N_14  and  C_15
    8  A    between atoms: C_15  and  C_16
    9  A    between atoms: C_19  and  O_20
   10  A    between atoms: C_21  and  O_22
   11  A    between atoms: O_22  and  C_23
                            x       y       z     vdW  Elec       q    Type
                         _______ _______ _______ _____ _____    ______ ____

>  <TORSDO>
F 8

>  <SCORE>
-7.322

>  <RMSD_LB>
0.000

>  <RMSD_UB>
0.000

$$$$
CHEMBL4532956
 OpenBabel10172500123D

 27 28  0  0  0  0  0  0  0  0999 V2000
  134.9080  135.6900  153.2680 C   0  0  0  0  0  0  0  0  0  0  0  0
  133.9610  136.3300  153.7090 O   0  0  0  0  0  0  0  0  0  0  0  0
  134.8030  134.6300  152.4040 N   0  0  0  0  0  0  0  0  0  0  0  0
  135.6250  134.1820  152.0990 H   0  0  0  0  0  0  0  0  0  0  0  0
  136.6410  137.0240  154.4250 C   0  0  0  0  0  3  0  0  0  0  0  0
  136.3160  135.9760  153.6470 C   0  0  0  0  0  3  0  0  0  0  0  0
  140.2070  138.2500  154.3310 C   0  0  0  0  0  0  0  0  0  0  0  0
  140.6380  138.0220  155.6330 C   0  0  0  0  0  3  0  0  0  0  0  0
  139.7880  137.4080  156.5570 C   0  0  0  0  0  3  0  0  0  0  0  0
  138.4890  137.0270  156.1990 C   0  0  0  0  0  0  0  0  0  0  0  0
  138.0150  137.3080  154.8990 C   0  0  0  0  0  0  0  0  0  0  0  0
  138.9030  137.8900  153.9720 C   0  0  0  0  0  3  0  0  0  0  0  0
  142.3520  138.9380  153.5690 C   0  0  0  0  0  1  0  0  0  0  0  0
  140.9520  138.8160  153.3330 O   0  0  0  0  0  0  0  0  0  0  0  0
  137.6330  136.3740  157.0500 O   0  0  0  0  0  0  0  0  0  0  0  0
  137.1040  137.1000  158.1520 C   0  0  0  0  0  1  0  0  0  0  0  0
  133.5290  134.1470  151.9280 C   0  0  0  0  0  2  0  0  0  0  0  0
  133.5380  133.9210  150.4400 C   0  0  0  0  0  0  0  0  0  0  0  0
  134.0280  132.7200  149.9150 C   0  0  0  0  0  3  0  0  0  0  0  0
  134.0380  132.5000  148.5360 C   0  0  0  0  0  3  0  0  0  0  0  0
  133.5370  133.4720  147.6670 C   0  0  0  0  0  0  0  0  0  0  0  0
  133.0130  134.6660  148.1720 C   0  0  0  0  0  0  0  0  0  0  0  0
  133.0340  134.8870  149.5560 C   0  0  0  0  0  3  0  0  0  0  0  0
  133.5930  133.2370  146.3210 O   0  0  0  0  0  0  0  0  0  0  0  0
  133.8400  132.3900  146.0030 H   0  0  0  0  0  0  0  0  0  0  0  0
  132.4980  135.7120  147.4500 O   0  0  0  0  0  0  0  0  0  0  0  0
  132.7960  137.0140  147.9410 C   0  0  0  0  0  1  0  0  0  0  0  0
  1  6  1  0  0  0  0
  1  2  2  0  0  0  0
  3  1  1  0  0  0  0
  4  3  1  0  0  0  0
  5 11  1  0  0  0  0
  6  5  2  0  0  0  0
  7  8  1  0  0  0  0
  8  9  2  0  0  0  0
 10  9  1  0  0  0  0
 10 15  1  0  0  0  0
 11 10  2  0  0  0  0
 12  7  2  0  0  0  0
 12 11  1  0  0  0  0
 14 13  1  0  0  0  0
 14  7  1  0  0  0  0
 15 16  1  0  0  0  0
 17  3  1  0  0  0  0
 18 17  1  0  0  0  0
 19 18  1  0  0  0  0
 20 19  2  0  0  0  0
 21 22  2  0  0  0  0
 21 20  1  0  0  0  0
 22 23  1  0  0  0  0
 23 18  2  0  0  0  0
 24 21  1  0  0  0  0
 25 24  1  0  0  0  0
 26 27  1  0  0  0  0
 26 22  1  0  0  0  0
M  END
>  <MODEL>
2

>  <REMARK>
 VINA RESULT:    -7.246      1.537      2.969
 INTER + INTRA:         -11.184
 INTER:                 -10.609
 INTRA:                  -0.575
 UNBOUND:                -0.761
  Name = CHEMBL4532956
  11 active torsions:
  status: ('A' for Active; 'I' for Inactive)
    1  A    between atoms: C_1  and  O_2
    2  A    between atoms: O_2  and  C_3
    3  A    between atoms: C_6  and  O_7
    4  A    between atoms: O_7  and  C_8
    5  A    between atoms: C_9  and  C_10
    6  A    between atoms: C_11  and  C_12
    7  A    between atoms: N_14  and  C_15
    8  A    between atoms: C_15  and  C_16
    9  A    between atoms: C_19  and  O_20
   10  A    between atoms: C_21  and  O_22
   11  A    between atoms: O_22  and  C_23
                            x       y       z     vdW  Elec       q    Type
                         _______ _______ _______ _____ _____    ______ ____

>  <TORSDO>
F 8

>  <SCORE>
-7.246

>  <RMSD_LB>
1.537

>  <RMSD_UB>
2.969

$$$$
CHEMBL4532956
 OpenBabel10172500123D

 27 28  0  0  0  0  0  0  0  0999 V2000
  134.2190  134.8320  153.2250 C   0  0  0  0  0  0  0  0  0  0  0  0
  134.1410  133.6190  153.3770 O   0  0  0  0  0  0  0  0  0  0  0  0
  133.5950  135.5390  152.2290 N   0  0  0  0  0  0  0  0  0  0  0  0
  133.7130  136.5150  152.1940 H   0  0  0  0  0  0  0  0  0  0  0  0
  135.5020  135.2680  155.2950 C   0  0  0  0  0  3  0  0  0  0  0  0
  135.0420  135.6990  154.1070 C   0  0  0  0  0  3  0  0  0  0  0  0
  138.1700  137.7450  156.2810 C   0  0  0  0  0  0  0  0  0  0  0  0
  138.0990  137.7260  157.6690 C   0  0  0  0  0  3  0  0  0  0  0  0
  137.2150  136.8590  158.3170 C   0  0  0  0  0  3  0  0  0  0  0  0
  136.3760  136.0080  157.5860 C   0  0  0  0  0  0  0  0  0  0  0  0
  136.3910  136.0600  156.1750 C   0  0  0  0  0  0  0  0  0  0  0  0
  137.3210  136.9120  155.5450 C   0  0  0  0  0  3  0  0  0  0  0  0
  138.6600  138.7270  154.1710 C   0  0  0  0  0  1  0  0  0  0  0  0
  139.0120  138.5260  155.5370 O   0  0  0  0  0  0  0  0  0  0  0  0
  135.5280  135.1020  158.1710 O   0  0  0  0  0  0  0  0  0  0  0  0
  135.5790  134.9520  159.5830 C   0  0  0  0  0  1  0  0  0  0  0  0
  132.7710  134.9000  151.2300 C   0  0  0  0  0  2  0  0  0  0  0  0
  133.5910  134.3690  150.0860 C   0  0  0  0  0  0  0  0  0  0  0  0
  133.5480  133.0080  149.7630 C   0  0  0  0  0  3  0  0  0  0  0  0
  134.3030  132.5070  148.7010 C   0  0  0  0  0  3  0  0  0  0  0  0
  135.0940  133.3660  147.9360 C   0  0  0  0  0  0  0  0  0  0  0  0
  135.1280  134.7350  148.2200 C   0  0  0  0  0  0  0  0  0  0  0  0
  134.3870  135.2220  149.3060 C   0  0  0  0  0  3  0  0  0  0  0  0
  135.8470  132.8350  146.9250 O   0  0  0  0  0  0  0  0  0  0  0  0
  135.4540  132.2520  146.3040 H   0  0  0  0  0  0  0  0  0  0  0  0
  135.8590  135.6950  147.5710 O   0  0  0  0  0  0  0  0  0  0  0  0
  136.9350  136.2640  148.3070 C   0  0  0  0  0  1  0  0  0  0  0  0
  1  2  2  0  0  0  0
  1  6  1  0  0  0  0
  3  1  1  0  0  0  0
  4  3  1  0  0  0  0
  5 11  1  0  0  0  0
  6  5  2  0  0  0  0
  7  8  1  0  0  0  0
  8  9  2  0  0  0  0
 10 15  1  0  0  0  0
 10  9  1  0  0  0  0
 11 10  2  0  0  0  0
 12 11  1  0  0  0  0
 12  7  2  0  0  0  0
 13 14  1  0  0  0  0
 14  7  1  0  0  0  0
 15 16  1  0  0  0  0
 17  3  1  0  0  0  0
 18 17  1  0  0  0  0
 19 18  1  0  0  0  0
 20 19  2  0  0  0  0
 21 22  2  0  0  0  0
 21 20  1  0  0  0  0
 22 23  1  0  0  0  0
 23 18  2  0  0  0  0
 24 21  1  0  0  0  0
 25 24  1  0  0  0  0
 26 22  1  0  0  0  0
 26 27  1  0  0  0  0
M  END
>  <MODEL>
3

>  <REMARK>
 VINA RESULT:    -7.045      1.600      2.945
 INTER + INTRA:         -10.895
 INTER:                 -10.161
 INTRA:                  -0.734
 UNBOUND:                -0.761
  Name = CHEMBL4532956
  11 active torsions:
  status: ('A' for Active; 'I' for Inactive)
    1  A    between atoms: C_1  and  O_2
    2  A    between atoms: O_2  and  C_3
    3  A    between atoms: C_6  and  O_7
    4  A    between atoms: O_7  and  C_8
    5  A    between atoms: C_9  and  C_10
    6  A    between atoms: C_11  and  C_12
    7  A    between atoms: N_14  and  C_15
    8  A    between atoms: C_15  and  C_16
    9  A    between atoms: C_19  and  O_20
   10  A    between atoms: C_21  and  O_22
   11  A    between atoms: O_22  and  C_23
                            x       y       z     vdW  Elec       q    Type
                         _______ _______ _______ _____ _____    ______ ____

>  <TORSDO>
F 8

>  <SCORE>
-7.045

>  <RMSD_LB>
1.600

>  <RMSD_UB>
2.945

$$$$
CHEMBL4532956
 OpenBabel10172500123D

 27 28  0  0  0  0  0  0  0  0999 V2000
  138.3200  137.8090  149.9490 C   0  0  0  0  0  0  0  0  0  0  0  0
  138.6670  138.7880  149.3000 O   0  0  0  0  0  0  0  0  0  0  0  0
  139.1510  137.0630  150.7450 N   0  0  0  0  0  0  0  0  0  0  0  0
  138.7760  136.2950  151.2350 H   0  0  0  0  0  0  0  0  0  0  0  0
  136.5340  136.2980  150.7520 C   0  0  0  0  0  3  0  0  0  0  0  0
  136.9300  137.2850  149.9290 C   0  0  0  0  0  3  0  0  0  0  0  0
  133.2890  134.7480  149.6140 C   0  0  0  0  0  0  0  0  0  0  0  0
  132.5520  134.6950  150.7920 C   0  0  0  0  0  3  0  0  0  0  0  0
  133.0790  135.2190  151.9760 C   0  0  0  0  0  3  0  0  0  0  0  0
  134.3580  135.7890  152.0040 C   0  0  0  0  0  0  0  0  0  0  0  0
  135.1440  135.7940  150.8310 C   0  0  0  0  0  0  0  0  0  0  0  0
  134.5750  135.2980  149.6400 C   0  0  0  0  0  3  0  0  0  0  0  0
  133.6020  133.2120  147.8260 C   0  0  0  0  0  1  0  0  0  0  0  0
  132.8710  134.2950  148.3920 O   0  0  0  0  0  0  0  0  0  0  0  0
  134.9020  136.3640  153.1250 O   0  0  0  0  0  0  0  0  0  0  0  0
  134.5640  135.8120  154.3900 C   0  0  0  0  0  1  0  0  0  0  0  0
  140.5560  137.3620  150.8890 C   0  0  0  0  0  2  0  0  0  0  0  0
  140.8980  137.7720  152.2960 C   0  0  0  0  0  0  0  0  0  0  0  0
  142.2270  137.7360  152.7340 C   0  0  0  0  0  3  0  0  0  0  0  0
  142.5550  138.1160  154.0360 C   0  0  0  0  0  3  0  0  0  0  0  0
  141.5600  138.5590  154.9100 C   0  0  0  0  0  0  0  0  0  0  0  0
  140.2300  138.6340  154.4840 C   0  0  0  0  0  0  0  0  0  0  0  0
  139.9080  138.2220  153.1820 C   0  0  0  0  0  3  0  0  0  0  0  0
  141.9120  138.8920  156.1890 O   0  0  0  0  0  0  0  0  0  0  0  0
  142.7410  139.2970  156.3560 H   0  0  0  0  0  0  0  0  0  0  0  0
  139.1470  139.0340  155.2230 O   0  0  0  0  0  0  0  0  0  0  0  0
  138.1340  138.0570  155.4250 C   0  0  0  0  0  1  0  0  0  0  0  0
  1  3  1  0  0  0  0
  2  1  2  0  0  0  0
  3 17  1  0  0  0  0
  3  4  1  0  0  0  0
  5 11  1  0  0  0  0
  6  1  1  0  0  0  0
  6  5  2  0  0  0  0
  7 12  2  0  0  0  0
  7  8  1  0  0  0  0
  8  9  2  0  0  0  0
  9 10  1  0  0  0  0
 10 15  1  0  0  0  0
 11 10  2  0  0  0  0
 12 11  1  0  0  0  0
 13 14  1  0  0  0  0
 14  7  1  0  0  0  0
 15 16  1  0  0  0  0
 17 18  1  0  0  0  0
 18 19  2  0  0  0  0
 18 23  1  0  0  0  0
 19 20  1  0  0  0  0
 20 21  2  0  0  0  0
 21 24  1  0  0  0  0
 22 21  1  0  0  0  0
 22 26  1  0  0  0  0
 23 22  2  0  0  0  0
 24 25  1  0  0  0  0
 26 27  1  0  0  0  0
M  END
>  <MODEL>
4

>  <REMARK>
 VINA RESULT:    -6.990      2.820      8.838
 INTER + INTRA:         -10.816
 INTER:                  -9.977
 INTRA:                  -0.839
 UNBOUND:                -0.761
  Name = CHEMBL4532956
  11 active torsions:
  status: ('A' for Active; 'I' for Inactive)
    1  A    between atoms: C_1  and  O_2
    2  A    between atoms: O_2  and  C_3
    3  A    between atoms: C_6  and  O_7
    4  A    between atoms: O_7  and  C_8
    5  A    between atoms: C_9  and  C_10
    6  A    between atoms: C_11  and  C_12
    7  A    between atoms: N_14  and  C_15
    8  A    between atoms: C_15  and  C_16
    9  A    between atoms: C_19  and  O_20
   10  A    between atoms: C_21  and  O_22
   11  A    between atoms: O_22  and  C_23
                            x       y       z     vdW  Elec       q    Type
                         _______ _______ _______ _____ _____    ______ ____

>  <TORSDO>
F 8

>  <SCORE>
-6.990

>  <RMSD_LB>
2.820

>  <RMSD_UB>
8.838

$$$$
CHEMBL4532956
 OpenBabel10172500123D

 27 28  0  0  0  0  0  0  0  0999 V2000
  134.4110  134.9570  152.7680 C   0  0  0  0  0  0  0  0  0  0  0  0
  134.4630  133.7330  152.7720 O   0  0  0  0  0  0  0  0  0  0  0  0
  133.5660  135.7030  151.9870 N   0  0  0  0  0  0  0  0  0  0  0  0
  133.5930  136.6840  152.0600 H   0  0  0  0  0  0  0  0  0  0  0  0
  135.6100  135.4590  154.8730 C   0  0  0  0  0  3  0  0  0  0  0  0
  135.2990  135.8010  153.6100 C   0  0  0  0  0  3  0  0  0  0  0  0
  138.3510  137.8850  155.7860 C   0  0  0  0  0  0  0  0  0  0  0  0
  138.3520  137.8280  157.1750 C   0  0  0  0  0  3  0  0  0  0  0  0
  137.4940  136.9500  157.8440 C   0  0  0  0  0  3  0  0  0  0  0  0
  136.6100  136.1270  157.1350 C   0  0  0  0  0  0  0  0  0  0  0  0
  136.5520  136.2190  155.7270 C   0  0  0  0  0  0  0  0  0  0  0  0
  137.4560  137.0800  155.0730 C   0  0  0  0  0  3  0  0  0  0  0  0
  140.5600  138.4290  155.0930 C   0  0  0  0  0  1  0  0  0  0  0  0
  139.1600  138.6800  155.0210 O   0  0  0  0  0  0  0  0  0  0  0  0
  135.7840  135.2120  157.7380 O   0  0  0  0  0  0  0  0  0  0  0  0
  136.1750  134.6890  159.0000 C   0  0  0  0  0  1  0  0  0  0  0  0
  132.6380  135.0990  151.0610 C   0  0  0  0  0  2  0  0  0  0  0  0
  132.9880  135.4160  149.6320 C   0  0  0  0  0  0  0  0  0  0  0  0
  132.8610  136.7240  149.1510 C   0  0  0  0  0  3  0  0  0  0  0  0
  133.1870  137.0280  147.8280 C   0  0  0  0  0  3  0  0  0  0  0  0
  133.6650  136.0300  146.9760 C   0  0  0  0  0  0  0  0  0  0  0  0
  133.8300  134.7230  147.4440 C   0  0  0  0  0  0  0  0  0  0  0  0
  133.4730  134.4230  148.7670 C   0  0  0  0  0  3  0  0  0  0  0  0
  133.9420  136.3570  145.6770 O   0  0  0  0  0  0  0  0  0  0  0  0
  134.8160  136.5860  145.4280 H   0  0  0  0  0  0  0  0  0  0  0  0
  134.2740  133.6400  146.7300 O   0  0  0  0  0  0  0  0  0  0  0  0
  135.2580  132.8340  147.3680 C   0  0  0  0  0  1  0  0  0  0  0  0
  1  2  2  0  0  0  0
  1  6  1  0  0  0  0
  3  4  1  0  0  0  0
  3  1  1  0  0  0  0
  5 11  1  0  0  0  0
  6  5  2  0  0  0  0
  7  8  1  0  0  0  0
  8  9  2  0  0  0  0
 10 15  1  0  0  0  0
 10  9  1  0  0  0  0
 11 10  2  0  0  0  0
 12 11  1  0  0  0  0
 12  7  2  0  0  0  0
 14 13  1  0  0  0  0
 14  7  1  0  0  0  0
 15 16  1  0  0  0  0
 17  3  1  0  0  0  0
 18 17  1  0  0  0  0
 19 18  1  0  0  0  0
 20 19  2  0  0  0  0
 21 22  2  0  0  0  0
 21 20  1  0  0  0  0
 22 23  1  0  0  0  0
 23 18  2  0  0  0  0
 24 21  1  0  0  0  0
 25 24  1  0  0  0  0
 26 27  1  0  0  0  0
 26 22  1  0  0  0  0
M  END
>  <MODEL>
5

>  <REMARK>
 VINA RESULT:    -6.898      1.373      3.188
 INTER + INTRA:         -10.684
 INTER:                 -10.082
 INTRA:                  -0.602
 UNBOUND:                -0.761
  Name = CHEMBL4532956
  11 active torsions:
  status: ('A' for Active; 'I' for Inactive)
    1  A    between atoms: C_1  and  O_2
    2  A    between atoms: O_2  and  C_3
    3  A    between atoms: C_6  and  O_7
    4  A    between atoms: O_7  and  C_8
    5  A    between atoms: C_9  and  C_10
    6  A    between atoms: C_11  and  C_12
    7  A    between atoms: N_14  and  C_15
    8  A    between atoms: C_15  and  C_16
    9  A    between atoms: C_19  and  O_20
   10  A    between atoms: C_21  and  O_22
   11  A    between atoms: O_22  and  C_23
                            x       y       z     vdW  Elec       q    Type
                         _______ _______ _______ _____ _____    ______ ____

>  <TORSDO>
F 8

>  <SCORE>
-6.898

>  <RMSD_LB>
1.373

>  <RMSD_UB>
3.188

$$$$
CHEMBL4532956
 OpenBabel10172500123D

 27 28  0  0  0  0  0  0  0  0999 V2000
  144.1640  140.0640  150.7180 C   0  0  0  0  0  0  0  0  0  0  0  0
  144.4690  141.1460  150.2320 O   0  0  0  0  0  0  0  0  0  0  0  0
  145.0500  139.0620  151.0190 N   0  0  0  0  0  0  0  0  0  0  0  0
  144.7090  138.2280  151.4150 H   0  0  0  0  0  0  0  0  0  0  0  0
  142.4600  138.6540  151.8270 C   0  0  0  0  0  3  0  0  0  0  0  0
  142.7580  139.6890  151.0220 C   0  0  0  0  0  3  0  0  0  0  0  0
  139.4120  138.3150  154.0220 C   0  0  0  0  0  0  0  0  0  0  0  0
  138.4760  137.7630  153.1540 C   0  0  0  0  0  3  0  0  0  0  0  0
  138.8390  137.4360  151.8440 C   0  0  0  0  0  3  0  0  0  0  0  0
  140.1380  137.6700  151.3770 C   0  0  0  0  0  0  0  0  0  0  0  0
  141.0820  138.2870  152.2270 C   0  0  0  0  0  0  0  0  0  0  0  0
  140.7060  138.5690  153.5550 C   0  0  0  0  0  3  0  0  0  0  0  0
  139.6120  137.7150  156.3140 C   0  0  0  0  0  1  0  0  0  0  0  0
  139.1850  138.6510  155.3290 O   0  0  0  0  0  0  0  0  0  0  0  0
  140.5610  137.3200  150.1190 O   0  0  0  0  0  0  0  0  0  0  0  0
  139.6730  137.5350  149.0310 C   0  0  0  0  0  1  0  0  0  0  0  0
  146.4680  139.1870  150.7740 C   0  0  0  0  0  2  0  0  0  0  0  0
  147.1690  139.8960  151.9010 C   0  0  0  0  0  0  0  0  0  0  0  0
  147.6240  141.2080  151.7310 C   0  0  0  0  0  3  0  0  0  0  0  0
  148.2730  141.8750  152.7710 C   0  0  0  0  0  3  0  0  0  0  0  0
  148.4560  141.2430  154.0030 C   0  0  0  0  0  0  0  0  0  0  0  0
  147.9810  139.9430  154.2070 C   0  0  0  0  0  0  0  0  0  0  0  0
  147.3560  139.2740  153.1450 C   0  0  0  0  0  3  0  0  0  0  0  0
  149.1260  141.9140  154.9890 O   0  0  0  0  0  0  0  0  0  0  0  0
  149.9370  141.5770  155.3170 H   0  0  0  0  0  0  0  0  0  0  0  0
  148.0940  139.1920  155.3470 O   0  0  0  0  0  0  0  0  0  0  0  0
  146.9200  138.5020  155.7570 C   0  0  0  0  0  1  0  0  0  0  0  0
  1  3  1  0  0  0  0
  1  6  1  0  0  0  0
  2  1  2  0  0  0  0
  3  4  1  0  0  0  0
  5 11  1  0  0  0  0
  6  5  2  0  0  0  0
  7 14  1  0  0  0  0
  8  7  2  0  0  0  0
  9  8  1  0  0  0  0
 10  9  2  0  0  0  0
 10 11  1  0  0  0  0
 11 12  2  0  0  0  0
 12  7  1  0  0  0  0
 14 13  1  0  0  0  0
 15 10  1  0  0  0  0
 16 15  1  0  0  0  0
 17  3  1  0  0  0  0
 17 18  1  0  0  0  0
 18 23  1  0  0  0  0
 19 18  2  0  0  0  0
 19 20  1  0  0  0  0
 20 21  2  0  0  0  0
 21 22  1  0  0  0  0
 21 24  1  0  0  0  0
 22 26  1  0  0  0  0
 23 22  2  0  0  0  0
 24 25  1  0  0  0  0
 26 27  1  0  0  0  0
M  END
>  <MODEL>
6

>  <REMARK>
 VINA RESULT:    -6.739      6.995     11.911
 INTER + INTRA:         -10.454
 INTER:                  -9.726
 INTRA:                  -0.728
 UNBOUND:                -0.761
  Name = CHEMBL4532956
  11 active torsions:
  status: ('A' for Active; 'I' for Inactive)
    1  A    between atoms: C_1  and  O_2
    2  A    between atoms: O_2  and  C_3
    3  A    between atoms: C_6  and  O_7
    4  A    between atoms: O_7  and  C_8
    5  A    between atoms: C_9  and  C_10
    6  A    between atoms: C_11  and  C_12
    7  A    between atoms: N_14  and  C_15
    8  A    between atoms: C_15  and  C_16
    9  A    between atoms: C_19  and  O_20
   10  A    between atoms: C_21  and  O_22
   11  A    between atoms: O_22  and  C_23
                            x       y       z     vdW  Elec       q    Type
                         _______ _______ _______ _____ _____    ______ ____

>  <TORSDO>
F 8

>  <SCORE>
-6.739

>  <RMSD_LB>
6.995

>  <RMSD_UB>
11.911

$$$$
CHEMBL4532956
 OpenBabel10172500123D

 27 28  0  0  0  0  0  0  0  0999 V2000
  144.8620  137.1340  150.9060 C   0  0  0  0  0  0  0  0  0  0  0  0
  145.5050  136.2870  151.5150 O   0  0  0  0  0  0  0  0  0  0  0  0
  145.3940  138.2670  150.3450 N   0  0  0  0  0  0  0  0  0  0  0  0
  144.7960  138.8860  149.8680 H   0  0  0  0  0  0  0  0  0  0  0  0
  142.5320  137.4060  151.6900 C   0  0  0  0  0  3  0  0  0  0  0  0
  143.3900  137.0450  150.7210 C   0  0  0  0  0  3  0  0  0  0  0  0
  139.1730  136.9190  150.0450 C   0  0  0  0  0  0  0  0  0  0  0  0
  138.2880  137.2610  151.0620 C   0  0  0  0  0  3  0  0  0  0  0  0
  138.7720  137.7140  152.2930 C   0  0  0  0  0  3  0  0  0  0  0  0
  140.1480  137.8180  152.5310 C   0  0  0  0  0  0  0  0  0  0  0  0
  141.0600  137.4150  151.5310 C   0  0  0  0  0  0  0  0  0  0  0  0
  140.5490  137.0010  150.2850 C   0  0  0  0  0  3  0  0  0  0  0  0
  139.2870  135.2020  148.4050 C   0  0  0  0  0  1  0  0  0  0  0  0
  138.8220  136.4900  148.7950 O   0  0  0  0  0  0  0  0  0  0  0  0
  140.6750  138.3060  153.7010 O   0  0  0  0  0  0  0  0  0  0  0  0
  139.8350  139.0880  154.5380 C   0  0  0  0  0  1  0  0  0  0  0  0
  146.8000  138.5840  150.4320 C   0  0  0  0  0  2  0  0  0  0  0  0
  147.1000  139.4780  151.6050 C   0  0  0  0  0  0  0  0  0  0  0  0
  146.9350  140.8620  151.4930 C   0  0  0  0  0  3  0  0  0  0  0  0
  147.2070  141.6990  152.5760 C   0  0  0  0  0  3  0  0  0  0  0  0
  147.6290  141.1580  153.7920 C   0  0  0  0  0  0  0  0  0  0  0  0
  147.7710  139.7740  153.9370 C   0  0  0  0  0  0  0  0  0  0  0  0
  147.5200  138.9460  152.8330 C   0  0  0  0  0  3  0  0  0  0  0  0
  147.9200  142.0100  154.8220 O   0  0  0  0  0  0  0  0  0  0  0  0
  147.3720  142.7530  154.9840 H   0  0  0  0  0  0  0  0  0  0  0  0
  148.1830  139.0980  155.0560 O   0  0  0  0  0  0  0  0  0  0  0  0
  147.1510  138.6090  155.9040 C   0  0  0  0  0  1  0  0  0  0  0  0
  1  2  2  0  0  0  0
  3 17  1  0  0  0  0
  3  1  1  0  0  0  0
  4  3  1  0  0  0  0
  6  1  1  0  0  0  0
  6  5  2  0  0  0  0
  7 12  2  0  0  0  0
  7  8  1  0  0  0  0
  8  9  2  0  0  0  0
  9 10  1  0  0  0  0
 10 15  1  0  0  0  0
 11  5  1  0  0  0  0
 11 10  2  0  0  0  0
 12 11  1  0  0  0  0
 13 14  1  0  0  0  0
 14  7  1  0  0  0  0
 15 16  1  0  0  0  0
 17 18  1  0  0  0  0
 18 23  1  0  0  0  0
 19 18  2  0  0  0  0
 19 20  1  0  0  0  0
 20 21  2  0  0  0  0
 21 22  1  0  0  0  0
 21 24  1  0  0  0  0
 22 26  1  0  0  0  0
 23 22  2  0  0  0  0
 24 25  1  0  0  0  0
 26 27  1  0  0  0  0
M  END
>  <MODEL>
7

>  <REMARK>
 VINA RESULT:    -6.673      6.941     12.061
 INTER + INTRA:         -10.360
 INTER:                  -9.563
 INTRA:                  -0.797
 UNBOUND:                -0.761
  Name = CHEMBL4532956
  11 active torsions:
  status: ('A' for Active; 'I' for Inactive)
    1  A    between atoms: C_1  and  O_2
    2  A    between atoms: O_2  and  C_3
    3  A    between atoms: C_6  and  O_7
    4  A    between atoms: O_7  and  C_8
    5  A    between atoms: C_9  and  C_10
    6  A    between atoms: C_11  and  C_12
    7  A    between atoms: N_14  and  C_15
    8  A    between atoms: C_15  and  C_16
    9  A    between atoms: C_19  and  O_20
   10  A    between atoms: C_21  and  O_22
   11  A    between atoms: O_22  and  C_23
                            x       y       z     vdW  Elec       q    Type
                         _______ _______ _______ _____ _____    ______ ____

>  <TORSDO>
F 8

>  <SCORE>
-6.673

>  <RMSD_LB>
6.941

>  <RMSD_UB>
12.061

$$$$
CHEMBL4532956
 OpenBabel10172500123D

 27 28  0  0  0  0  0  0  0  0999 V2000
  139.0100  135.4410  148.8700 C   0  0  0  0  0  0  0  0  0  0  0  0
  139.9910  135.0290  148.2640 O   0  0  0  0  0  0  0  0  0  0  0  0
  139.0070  136.5190  149.7170 N   0  0  0  0  0  0  0  0  0  0  0  0
  138.1640  136.7780  150.1540 H   0  0  0  0  0  0  0  0  0  0  0  0
  136.7340  134.9700  149.7190 C   0  0  0  0  0  3  0  0  0  0  0  0
  137.6780  134.7880  148.7790 C   0  0  0  0  0  3  0  0  0  0  0  0
  133.6220  133.5120  148.1650 C   0  0  0  0  0  0  0  0  0  0  0  0
  132.8310  133.2390  149.2750 C   0  0  0  0  0  3  0  0  0  0  0  0
  133.2750  133.5800  150.5560 C   0  0  0  0  0  3  0  0  0  0  0  0
  134.5240  134.1840  150.7480 C   0  0  0  0  0  0  0  0  0  0  0  0
  135.3660  134.4100  149.6370 C   0  0  0  0  0  0  0  0  0  0  0  0
  134.8790  134.0960  148.3520 C   0  0  0  0  0  3  0  0  0  0  0  0
  134.3170  133.4010  145.8940 C   0  0  0  0  0  1  0  0  0  0  0  0
  133.2860  133.2510  146.8650 O   0  0  0  0  0  0  0  0  0  0  0  0
  134.9870  134.5850  151.9760 O   0  0  0  0  0  0  0  0  0  0  0  0
  134.3960  134.0100  153.1340 C   0  0  0  0  0  1  0  0  0  0  0  0
  140.1990  137.2880  149.9910 C   0  0  0  0  0  2  0  0  0  0  0  0
  140.2740  137.7060  151.4340 C   0  0  0  0  0  0  0  0  0  0  0  0
  139.1020  137.9620  152.1530 C   0  0  0  0  0  3  0  0  0  0  0  0
  139.1620  138.3480  153.4940 C   0  0  0  0  0  3  0  0  0  0  0  0
  140.3960  138.4610  154.1370 C   0  0  0  0  0  0  0  0  0  0  0  0
  141.5790  138.1790  153.4460 C   0  0  0  0  0  0  0  0  0  0  0  0
  141.5080  137.8200  152.0930 C   0  0  0  0  0  3  0  0  0  0  0  0
  140.4190  138.8740  155.4400 O   0  0  0  0  0  0  0  0  0  0  0  0
  141.2370  138.9680  155.8880 H   0  0  0  0  0  0  0  0  0  0  0  0
  142.8580  138.2550  153.9340 O   0  0  0  0  0  0  0  0  0  0  0  0
  143.7860  137.3200  153.3980 C   0  0  0  0  0  1  0  0  0  0  0  0
  1  3  1  0  0  0  0
  2  1  2  0  0  0  0
  3 17  1  0  0  0  0
  3  4  1  0  0  0  0
  6  1  1  0  0  0  0
  6  5  2  0  0  0  0
  7 12  2  0  0  0  0
  7  8  1  0  0  0  0
  8  9  2  0  0  0  0
  9 10  1  0  0  0  0
 10 15  1  0  0  0  0
 11  5  1  0  0  0  0
 11 10  2  0  0  0  0
 12 11  1  0  0  0  0
 13 14  1  0  0  0  0
 14  7  1  0  0  0  0
 15 16  1  0  0  0  0
 17 18  1  0  0  0  0
 18 23  2  0  0  0  0
 18 19  1  0  0  0  0
 19 20  2  0  0  0  0
 20 21  1  0  0  0  0
 21 24  1  0  0  0  0
 22 26  1  0  0  0  0
 22 21  2  0  0  0  0
 23 22  1  0  0  0  0
 24 25  1  0  0  0  0
 27 26  1  0  0  0  0
M  END
>  <MODEL>
8

>  <REMARK>
 VINA RESULT:    -6.630      3.082      9.269
 INTER + INTRA:         -10.298
 INTER:                  -9.537
 INTRA:                  -0.761
 UNBOUND:                -0.761
  Name = CHEMBL4532956
  11 active torsions:
  status: ('A' for Active; 'I' for Inactive)
    1  A    between atoms: C_1  and  O_2
    2  A    between atoms: O_2  and  C_3
    3  A    between atoms: C_6  and  O_7
    4  A    between atoms: O_7  and  C_8
    5  A    between atoms: C_9  and  C_10
    6  A    between atoms: C_11  and  C_12
    7  A    between atoms: N_14  and  C_15
    8  A    between atoms: C_15  and  C_16
    9  A    between atoms: C_19  and  O_20
   10  A    between atoms: C_21  and  O_22
   11  A    between atoms: O_22  and  C_23
                            x       y       z     vdW  Elec       q    Type
                         _______ _______ _______ _____ _____    ______ ____

>  <TORSDO>
F 8

>  <SCORE>
-6.630

>  <RMSD_LB>
3.082

>  <RMSD_UB>
9.269

$$$$
CHEMBL4532956
 OpenBabel10172500123D

 27 28  0  0  0  0  0  0  0  0999 V2000
  144.4450  136.9540  150.7200 C   0  0  0  0  0  0  0  0  0  0  0  0
  144.9390  136.6170  149.6520 O   0  0  0  0  0  0  0  0  0  0  0  0
  145.1530  137.4090  151.8030 N   0  0  0  0  0  0  0  0  0  0  0  0
  144.6640  137.6630  152.6180 H   0  0  0  0  0  0  0  0  0  0  0  0
  142.3840  137.7030  151.8660 C   0  0  0  0  0  3  0  0  0  0  0  0
  142.9850  136.8810  150.9880 C   0  0  0  0  0  3  0  0  0  0  0  0
  138.6950  137.3920  151.1430 C   0  0  0  0  0  0  0  0  0  0  0  0
  138.1240  137.6220  152.3900 C   0  0  0  0  0  3  0  0  0  0  0  0
  138.9320  137.9420  153.4850 C   0  0  0  0  0  3  0  0  0  0  0  0
  140.3240  138.0200  153.3550 C   0  0  0  0  0  0  0  0  0  0  0  0
  140.9240  137.7280  152.1100 C   0  0  0  0  0  0  0  0  0  0  0  0
  140.0860  137.4490  151.0110 C   0  0  0  0  0  3  0  0  0  0  0  0
  137.7220  135.7260  149.7540 C   0  0  0  0  0  1  0  0  0  0  0  0
  138.0100  137.1000  149.9960 O   0  0  0  0  0  0  0  0  0  0  0  0
  141.1580  138.3800  154.3830 O   0  0  0  0  0  0  0  0  0  0  0  0
  140.8240  137.9510  155.6960 C   0  0  0  0  0  1  0  0  0  0  0  0
  146.5920  137.5290  151.7870 C   0  0  0  0  0  2  0  0  0  0  0  0
  147.0640  138.7100  152.5920 C   0  0  0  0  0  0  0  0  0  0  0  0
  148.0880  138.5560  153.5320 C   0  0  0  0  0  3  0  0  0  0  0  0
  148.5350  139.6460  154.2810 C   0  0  0  0  0  3  0  0  0  0  0  0
  147.9740  140.9100  154.0820 C   0  0  0  0  0  0  0  0  0  0  0  0
  146.9710  141.0940  153.1260 C   0  0  0  0  0  0  0  0  0  0  0  0
  146.5120  139.9860  152.3990 C   0  0  0  0  0  3  0  0  0  0  0  0
  148.4120  141.9480  154.8570 O   0  0  0  0  0  0  0  0  0  0  0  0
  149.2300  141.8820  155.3110 H   0  0  0  0  0  0  0  0  0  0  0  0
  146.3210  142.2620  152.8250 O   0  0  0  0  0  0  0  0  0  0  0  0
  145.5760  142.2680  151.6140 C   0  0  0  0  0  1  0  0  0  0  0  0
  1  6  1  0  0  0  0
  1  3  1  0  0  0  0
  2  1  2  0  0  0  0
  3  4  1  0  0  0  0
  5 11  1  0  0  0  0
  6  5  2  0  0  0  0
  7  8  1  0  0  0  0
  8  9  2  0  0  0  0
 10  9  1  0  0  0  0
 10 15  1  0  0  0  0
 11 10  2  0  0  0  0
 12  7  2  0  0  0  0
 12 11  1  0  0  0  0
 13 14  1  0  0  0  0
 14  7  1  0  0  0  0
 15 16  1  0  0  0  0
 17  3  1  0  0  0  0
 17 18  1  0  0  0  0
 18 19  1  0  0  0  0
 19 20  2  0  0  0  0
 21 20  1  0  0  0  0
 21 24  1  0  0  0  0
 22 21  2  0  0  0  0
 23 18  2  0  0  0  0
 23 22  1  0  0  0  0
 24 25  1  0  0  0  0
 26 22  1  0  0  0  0
 27 26  1  0  0  0  0
M  END
>  <MODEL>
9

>  <REMARK>
 VINA RESULT:    -6.625      6.732     11.615
 INTER + INTRA:         -10.291
 INTER:                  -9.511
 INTRA:                  -0.780
 UNBOUND:                -0.761
  Name = CHEMBL4532956
  11 active torsions:
  status: ('A' for Active; 'I' for Inactive)
    1  A    between atoms: C_1  and  O_2
    2  A    between atoms: O_2  and  C_3
    3  A    between atoms: C_6  and  O_7
    4  A    between atoms: O_7  and  C_8
    5  A    between atoms: C_9  and  C_10
    6  A    between atoms: C_11  and  C_12
    7  A    between atoms: N_14  and  C_15
    8  A    between atoms: C_15  and  C_16
    9  A    between atoms: C_19  and  O_20
   10  A    between atoms: C_21  and  O_22
   11  A    between atoms: O_22  and  C_23
                            x       y       z     vdW  Elec       q    Type
                         _______ _______ _______ _____ _____    ______ ____

>  <TORSDO>
F 8

>  <SCORE>
-6.625

>  <RMSD_LB>
6.732

>  <RMSD_UB>
11.615

$$$$
