CHEMBL3633643
 OpenBabel10172500003D

 35 38  0  0  1  0  0  0  0  0999 V2000
  135.7870  135.9270  155.3120 C   0  0  1  0  0  3  0  0  0  0  0  0
  136.1200  135.7410  156.7880 C   0  0  0  0  0  0  0  0  0  0  0  0
  135.5230  134.7460  157.5710 C   0  0  0  0  0  3  0  0  0  0  0  0
  135.1950  135.0240  158.8950 C   0  0  0  0  0  3  0  0  0  0  0  0
  135.4700  136.2830  159.4280 C   0  0  0  0  0  3  0  0  0  0  0  0
  136.2460  137.1880  158.7040 C   0  0  0  0  0  0  0  0  0  0  0  0
  136.6740  136.8670  157.4170 C   0  0  0  0  0  0  0  0  0  0  0  0
  137.6240  137.7070  156.6360 C   0  0  0  0  0  0  0  0  0  0  0  0
  138.3690  138.5220  157.1750 O   0  0  0  0  0  0  0  0  0  0  0  0
  137.7490  137.4970  155.1650 C   0  0  0  0  0  0  0  0  0  0  0  0
  138.6640  138.2590  154.4230 C   0  0  0  0  0  0  0  0  0  0  0  0
  138.7310  138.1340  153.0400 C   0  0  0  0  0  3  0  0  0  0  0  0
  137.8980  137.2280  152.3880 C   0  0  0  0  0  3  0  0  0  0  0  0
  136.9960  136.4490  153.1170 C   0  0  0  0  0  3  0  0  0  0  0  0
  136.9000  136.5760  154.5120 C   0  0  0  0  0  0  0  0  0  0  0  0
  136.4690  138.4350  159.2110 O   0  0  0  0  0  0  0  0  0  0  0  0
  135.7670  138.9100  159.6130 H   0  0  0  0  0  0  0  0  0  0  0  0
  139.5100  139.1790  154.9860 O   0  0  0  0  0  0  0  0  0  0  0  0
  139.7490  139.1030  155.8890 H   0  0  0  0  0  0  0  0  0  0  0  0
  134.8460  134.9210  154.6270 C   0  0  0  0  0  2  0  0  0  0  0  0
  133.4770  134.5610  152.6750 N   0  0  0  0  0  0  0  0  0  0  0  0
  133.8980  135.4930  153.6050 C   0  0  0  0  0  0  0  0  0  0  0  0
  133.5890  136.6760  153.5560 O   0  0  0  0  0  0  0  0  0  0  0  0
  133.6930  133.6100  152.8070 H   0  0  0  0  0  0  0  0  0  0  0  0
  132.7200  134.9690  151.5130 C   0  0  0  0  0  2  0  0  0  0  0  0
  134.2020  133.1650  147.8560 C   0  0  0  0  0  0  0  0  0  0  0  0
  134.2200  132.4630  149.0730 C   0  0  0  0  0  3  0  0  0  0  0  0
  133.7460  133.0520  150.2420 C   0  0  0  0  0  3  0  0  0  0  0  0
  133.2640  134.3620  150.2490 C   0  0  0  0  0  0  0  0  0  0  0  0
  133.2540  135.0650  149.0440 C   0  0  0  0  0  3  0  0  0  0  0  0
  133.7000  134.4810  147.8490 C   0  0  0  0  0  0  0  0  0  0  0  0
  136.1300  132.6900  146.5430 C   0  0  0  0  0  1  0  0  0  0  0  0
  134.7160  132.6620  146.6900 O   0  0  0  0  0  0  0  0  0  0  0  0
  133.6090  135.3260  146.7690 O   0  0  0  0  0  0  0  0  0  0  0  0
  133.6440  136.7210  147.0480 C   0  0  0  0  0  1  0  0  0  0  0  0
  1 20  1  6  0  0  0
  1  2  1  0  0  0  0
  2  7  2  0  0  0  0
  2  3  1  0  0  0  0
  3  4  2  0  0  0  0
  4  5  1  0  0  0  0
  6 16  1  0  0  0  0
  6  5  2  0  0  0  0
  7  6  1  0  0  0  0
  8  9  2  0  0  0  0
  8  7  1  0  0  0  0
 10  8  1  0  0  0  0
 11 18  1  0  0  0  0
 11 10  2  0  0  0  0
 12 11  1  0  0  0  0
 13 12  2  0  0  0  0
 13 14  1  0  0  0  0
 14 15  2  0  0  0  0
 15 10  1  0  0  0  0
 15  1  1  0  0  0  0
 16 17  1  0  0  0  0
 18 19  1  0  0  0  0
 21 24  1  0  0  0  0
 21 22  1  0  0  0  0
 22 20  1  0  0  0  0
 23 22  2  0  0  0  0
 25 21  1  0  0  0  0
 26 27  1  0  0  0  0
 27 28  2  0  0  0  0
 28 29  1  0  0  0  0
 29 25  1  0  0  0  0
 30 29  2  0  0  0  0
 31 26  2  0  0  0  0
 31 30  1  0  0  0  0
 32 33  1  0  0  0  0
 33 26  1  0  0  0  0
 34 35  1  0  0  0  0
 34 31  1  0  0  0  0
M  END
>  <MODEL>
1

>  <REMARK>
 VINA RESULT:    -8.908      0.000      0.000
 INTER + INTRA:         -14.473
 INTER:                 -13.891
 INTRA:                  -0.582
 UNBOUND:                -1.920
  Name = CHEMBL3633643
  10 active torsions:
  status: ('A' for Active; 'I' for Inactive)
    1  A    between atoms: C_1  and  O_2
    2  A    between atoms: O_2  and  C_3
    3  A    between atoms: C_6  and  C_7
    4  A    between atoms: C_7  and  N_8
    5  A    between atoms: C_9  and  C_11
    6  A    between atoms: C_11  and  C_12
    7  A    between atoms: C_17  and  O_18
    8  A    between atoms: C_23  and  O_24
    9  A    between atoms: C_30  and  O_31
   10  A    between atoms: O_31  and  C_32
                            x       y       z     vdW  Elec       q    Type
                         _______ _______ _______ _____ _____    ______ ____

>  <TORSDO>
F 8

>  <SCORE>
-8.908

>  <RMSD_LB>
0.000

>  <RMSD_UB>
0.000

$$$$
CHEMBL3633643
 OpenBabel10172500003D

 35 38  0  0  1  0  0  0  0  0999 V2000
  136.5010  135.6520  155.2840 C   0  0  1  0  0  3  0  0  0  0  0  0
  137.2270  136.9350  154.8940 C   0  0  0  0  0  0  0  0  0  0  0  0
  137.4470  137.2960  153.5600 C   0  0  0  0  0  3  0  0  0  0  0  0
  138.6480  137.9070  153.2070 C   0  0  0  0  0  3  0  0  0  0  0  0
  139.6100  138.1590  154.1830 C   0  0  0  0  0  3  0  0  0  0  0  0
  139.2950  137.9840  155.5300 C   0  0  0  0  0  0  0  0  0  0  0  0
  138.0480  137.4780  155.8950 C   0  0  0  0  0  0  0  0  0  0  0  0
  137.5770  137.3990  157.3050 C   0  0  0  0  0  0  0  0  0  0  0  0
  138.0690  138.0860  158.1970 O   0  0  0  0  0  0  0  0  0  0  0  0
  136.4120  136.5310  157.6400 C   0  0  0  0  0  0  0  0  0  0  0  0
  135.9370  136.4730  158.9600 C   0  0  0  0  0  0  0  0  0  0  0  0
  134.9080  135.6050  159.3030 C   0  0  0  0  0  3  0  0  0  0  0  0
  134.3280  134.8010  158.3250 C   0  0  0  0  0  3  0  0  0  0  0  0
  134.7780  134.8630  157.0040 C   0  0  0  0  0  3  0  0  0  0  0  0
  135.8300  135.7190  156.6420 C   0  0  0  0  0  0  0  0  0  0  0  0
  140.2570  138.1860  156.4760 O   0  0  0  0  0  0  0  0  0  0  0  0
  140.1080  137.9170  157.3610 H   0  0  0  0  0  0  0  0  0  0  0  0
  136.4600  137.2220  159.9820 O   0  0  0  0  0  0  0  0  0  0  0  0
  137.0080  137.9570  159.7900 H   0  0  0  0  0  0  0  0  0  0  0  0
  135.8900  134.7750  154.1760 C   0  0  0  0  0  2  0  0  0  0  0  0
  134.2790  134.5940  152.3920 N   0  0  0  0  0  0  0  0  0  0  0  0
  134.6630  135.3270  153.4990 C   0  0  0  0  0  0  0  0  0  0  0  0
  134.1050  136.3600  153.8470 O   0  0  0  0  0  0  0  0  0  0  0  0
  134.7150  133.7320  152.2040 H   0  0  0  0  0  0  0  0  0  0  0  0
  133.2430  135.0800  151.5090 C   0  0  0  0  0  2  0  0  0  0  0  0
  133.6040  133.4980  147.4850 C   0  0  0  0  0  0  0  0  0  0  0  0
  133.7730  132.6730  148.6090 C   0  0  0  0  0  3  0  0  0  0  0  0
  133.6590  133.1910  149.8960 C   0  0  0  0  0  3  0  0  0  0  0  0
  133.4000  134.5450  150.1120 C   0  0  0  0  0  0  0  0  0  0  0  0
  133.2430  135.3690  148.9970 C   0  0  0  0  0  3  0  0  0  0  0  0
  133.3240  134.8630  147.6920 C   0  0  0  0  0  0  0  0  0  0  0  0
  135.0410  133.2840  145.5990 C   0  0  0  0  0  1  0  0  0  0  0  0
  133.7710  133.0600  146.1980 O   0  0  0  0  0  0  0  0  0  0  0  0
  133.1380  135.8250  146.7280 O   0  0  0  0  0  0  0  0  0  0  0  0
  132.4690  137.0130  147.1350 C   0  0  0  0  0  1  0  0  0  0  0  0
  1 20  1  6  0  0  0
  1 15  1  0  0  0  0
  2  1  1  0  0  0  0
  2  7  1  0  0  0  0
  3  2  2  0  0  0  0
  4  3  1  0  0  0  0
  4  5  2  0  0  0  0
  5  6  1  0  0  0  0
  6  7  2  0  0  0  0
  6 16  1  0  0  0  0
  7  8  1  0  0  0  0
  8 10  1  0  0  0  0
  8  9  2  0  0  0  0
 10 11  1  0  0  0  0
 11 12  2  0  0  0  0
 11 18  1  0  0  0  0
 13 12  1  0  0  0  0
 14 13  2  0  0  0  0
 15 14  1  0  0  0  0
 15 10  2  0  0  0  0
 16 17  1  0  0  0  0
 19 18  1  0  0  0  0
 21 22  1  0  0  0  0
 22 23  2  0  0  0  0
 22 20  1  0  0  0  0
 24 21  1  0  0  0  0
 25 21  1  0  0  0  0
 26 31  2  0  0  0  0
 26 27  1  0  0  0  0
 27 28  2  0  0  0  0
 28 29  1  0  0  0  0
 29 25  1  0  0  0  0
 30 29  2  0  0  0  0
 31 30  1  0  0  0  0
 32 33  1  0  0  0  0
 33 26  1  0  0  0  0
 34 35  1  0  0  0  0
 34 31  1  0  0  0  0
M  END
>  <MODEL>
2

>  <REMARK>
 VINA RESULT:    -8.893      0.924      3.598
 INTER + INTRA:         -14.452
 INTER:                 -14.057
 INTRA:                  -0.396
 UNBOUND:                -1.920
  Name = CHEMBL3633643
  10 active torsions:
  status: ('A' for Active; 'I' for Inactive)
    1  A    between atoms: C_1  and  O_2
    2  A    between atoms: O_2  and  C_3
    3  A    between atoms: C_6  and  C_7
    4  A    between atoms: C_7  and  N_8
    5  A    between atoms: C_9  and  C_11
    6  A    between atoms: C_11  and  C_12
    7  A    between atoms: C_17  and  O_18
    8  A    between atoms: C_23  and  O_24
    9  A    between atoms: C_30  and  O_31
   10  A    between atoms: O_31  and  C_32
                            x       y       z     vdW  Elec       q    Type
                         _______ _______ _______ _____ _____    ______ ____

>  <TORSDO>
F 8

>  <SCORE>
-8.893

>  <RMSD_LB>
0.924

>  <RMSD_UB>
3.598

$$$$
CHEMBL3633643
 OpenBabel10172500003D

 35 38  0  0  1  0  0  0  0  0999 V2000
  136.2800  135.4130  154.3860 C   0  0  1  0  0  3  0  0  0  0  0  0
  136.6280  136.5370  153.4160 C   0  0  0  0  0  0  0  0  0  0  0  0
  136.3050  136.4800  152.0550 C   0  0  0  0  0  3  0  0  0  0  0  0
  137.2010  136.9900  151.1190 C   0  0  0  0  0  3  0  0  0  0  0  0
  138.4020  137.5570  151.5450 C   0  0  0  0  0  3  0  0  0  0  0  0
  138.6150  137.7910  152.9030 C   0  0  0  0  0  0  0  0  0  0  0  0
  137.6650  137.3840  153.8400 C   0  0  0  0  0  0  0  0  0  0  0  0
  137.7430  137.7240  155.2870 C   0  0  0  0  0  0  0  0  0  0  0  0
  138.4170  138.6650  155.7000 O   0  0  0  0  0  0  0  0  0  0  0  0
  136.9100  136.9660  156.2630 C   0  0  0  0  0  0  0  0  0  0  0  0
  136.9490  137.2990  157.6270 C   0  0  0  0  0  0  0  0  0  0  0  0
  136.2440  136.5470  158.5590 C   0  0  0  0  0  3  0  0  0  0  0  0
  135.4750  135.4660  158.1340 C   0  0  0  0  0  3  0  0  0  0  0  0
  135.4120  135.1350  156.7780 C   0  0  0  0  0  3  0  0  0  0  0  0
  136.1330  135.8710  155.8240 C   0  0  0  0  0  0  0  0  0  0  0  0
  139.8110  138.3000  153.3160 O   0  0  0  0  0  0  0  0  0  0  0  0
  140.1120  139.1230  152.9810 H   0  0  0  0  0  0  0  0  0  0  0  0
  137.6890  138.3390  158.1270 O   0  0  0  0  0  0  0  0  0  0  0  0
  138.2910  138.1890  158.8280 H   0  0  0  0  0  0  0  0  0  0  0  0
  135.4460  134.2230  153.8790 C   0  0  0  0  0  2  0  0  0  0  0  0
  133.7370  134.0690  152.1860 N   0  0  0  0  0  0  0  0  0  0  0  0
  134.0360  134.5390  153.4510 C   0  0  0  0  0  0  0  0  0  0  0  0
  133.2590  135.2070  154.1210 O   0  0  0  0  0  0  0  0  0  0  0  0
  134.3700  133.4730  151.7250 H   0  0  0  0  0  0  0  0  0  0  0  0
  132.5010  134.4420  151.5350 C   0  0  0  0  0  2  0  0  0  0  0  0
  133.2940  136.2740  147.6820 C   0  0  0  0  0  0  0  0  0  0  0  0
  132.9370  137.0490  148.7980 C   0  0  0  0  0  3  0  0  0  0  0  0
  132.6800  136.4520  150.0290 C   0  0  0  0  0  3  0  0  0  0  0  0
  132.7440  135.0670  150.1890 C   0  0  0  0  0  0  0  0  0  0  0  0
  133.0880  134.2930  149.0800 C   0  0  0  0  0  3  0  0  0  0  0  0
  133.3780  134.8760  147.8380 C   0  0  0  0  0  0  0  0  0  0  0  0
  134.7340  137.4440  146.1920 C   0  0  0  0  0  1  0  0  0  0  0  0
  133.4910  136.7980  146.4330 O   0  0  0  0  0  0  0  0  0  0  0  0
  133.6990  133.9540  146.8710 O   0  0  0  0  0  0  0  0  0  0  0  0
  134.8490  133.1500  147.1130 C   0  0  0  0  0  1  0  0  0  0  0  0
  1 20  1  6  0  0  0
  1 15  1  0  0  0  0
  2  7  1  0  0  0  0
  2  1  1  0  0  0  0
  3  2  2  0  0  0  0
  4  5  2  0  0  0  0
  4  3  1  0  0  0  0
  5  6  1  0  0  0  0
  6 16  1  0  0  0  0
  6  7  2  0  0  0  0
  7  8  1  0  0  0  0
  8  9  2  0  0  0  0
  8 10  1  0  0  0  0
 10 11  1  0  0  0  0
 11 18  1  0  0  0  0
 11 12  2  0  0  0  0
 13 12  1  0  0  0  0
 14 13  2  0  0  0  0
 15 10  2  0  0  0  0
 15 14  1  0  0  0  0
 17 16  1  0  0  0  0
 18 19  1  0  0  0  0
 21 22  1  0  0  0  0
 22 20  1  0  0  0  0
 22 23  2  0  0  0  0
 24 21  1  0  0  0  0
 25 21  1  0  0  0  0
 26 31  2  0  0  0  0
 26 27  1  0  0  0  0
 27 28  2  0  0  0  0
 28 29  1  0  0  0  0
 29 25  1  0  0  0  0
 30 29  2  0  0  0  0
 31 30  1  0  0  0  0
 32 33  1  0  0  0  0
 33 26  1  0  0  0  0
 34 35  1  0  0  0  0
 34 31  1  0  0  0  0
M  END
>  <MODEL>
3

>  <REMARK>
 VINA RESULT:    -8.806      1.146      4.096
 INTER + INTRA:         -14.329
 INTER:                 -13.404
 INTRA:                  -0.925
 UNBOUND:                -1.920
  Name = CHEMBL3633643
  10 active torsions:
  status: ('A' for Active; 'I' for Inactive)
    1  A    between atoms: C_1  and  O_2
    2  A    between atoms: O_2  and  C_3
    3  A    between atoms: C_6  and  C_7
    4  A    between atoms: C_7  and  N_8
    5  A    between atoms: C_9  and  C_11
    6  A    between atoms: C_11  and  C_12
    7  A    between atoms: C_17  and  O_18
    8  A    between atoms: C_23  and  O_24
    9  A    between atoms: C_30  and  O_31
   10  A    between atoms: O_31  and  C_32
                            x       y       z     vdW  Elec       q    Type
                         _______ _______ _______ _____ _____    ______ ____

>  <TORSDO>
F 8

>  <SCORE>
-8.806

>  <RMSD_LB>
1.146

>  <RMSD_UB>
4.096

$$$$
CHEMBL3633643
 OpenBabel10172500003D

 35 38  0  0  1  0  0  0  0  0999 V2000
  135.7770  135.6770  153.2380 C   0  0  1  0  0  3  0  0  0  0  0  0
  136.5080  135.9420  154.5490 C   0  0  0  0  0  0  0  0  0  0  0  0
  136.1610  135.3030  155.7440 C   0  0  0  0  0  3  0  0  0  0  0  0
  136.2110  136.0150  156.9400 C   0  0  0  0  0  3  0  0  0  0  0  0
  136.6130  137.3500  156.9340 C   0  0  0  0  0  3  0  0  0  0  0  0
  137.1510  137.9080  155.7750 C   0  0  0  0  0  0  0  0  0  0  0  0
  137.2080  137.1590  154.6010 C   0  0  0  0  0  0  0  0  0  0  0  0
  137.8970  137.6230  153.3650 C   0  0  0  0  0  0  0  0  0  0  0  0
  138.7560  138.5010  153.3880 O   0  0  0  0  0  0  0  0  0  0  0  0
  137.6090  136.9460  152.0690 C   0  0  0  0  0  0  0  0  0  0  0  0
  138.2770  137.3520  150.9020 C   0  0  0  0  0  0  0  0  0  0  0  0
  137.9580  136.7880  149.6730 C   0  0  0  0  0  3  0  0  0  0  0  0
  136.9830  135.7950  149.6000 C   0  0  0  0  0  3  0  0  0  0  0  0
  136.3250  135.3680  150.7560 C   0  0  0  0  0  3  0  0  0  0  0  0
  136.6190  135.9400  152.0040 C   0  0  0  0  0  0  0  0  0  0  0  0
  137.4970  139.2280  155.7650 O   0  0  0  0  0  0  0  0  0  0  0  0
  137.5910  139.6810  154.9490 H   0  0  0  0  0  0  0  0  0  0  0  0
  139.2390  138.3280  150.8860 O   0  0  0  0  0  0  0  0  0  0  0  0
  138.9910  139.2270  150.8030 H   0  0  0  0  0  0  0  0  0  0  0  0
  134.6900  134.5880  153.1970 C   0  0  0  0  0  2  0  0  0  0  0  0
  133.2890  133.5670  151.5230 N   0  0  0  0  0  0  0  0  0  0  0  0
  133.6280  134.7550  152.1420 C   0  0  0  0  0  0  0  0  0  0  0  0
  133.1640  135.8390  151.8140 O   0  0  0  0  0  0  0  0  0  0  0  0
  133.6350  132.7160  151.8780 H   0  0  0  0  0  0  0  0  0  0  0  0
  132.4310  133.5600  150.3590 C   0  0  0  0  0  2  0  0  0  0  0  0
  134.6130  133.9890  146.6340 C   0  0  0  0  0  0  0  0  0  0  0  0
  134.6700  132.7990  147.3780 C   0  0  0  0  0  3  0  0  0  0  0  0
  133.9700  132.6730  148.5750 C   0  0  0  0  0  3  0  0  0  0  0  0
  133.2120  133.7280  149.0850 C   0  0  0  0  0  0  0  0  0  0  0  0
  133.1620  134.9150  148.3540 C   0  0  0  0  0  3  0  0  0  0  0  0
  133.8360  135.0530  147.1310 C   0  0  0  0  0  0  0  0  0  0  0  0
  135.4120  133.1120  144.5700 C   0  0  0  0  0  1  0  0  0  0  0  0
  135.3340  134.1950  145.4880 O   0  0  0  0  0  0  0  0  0  0  0  0
  133.6640  136.2910  146.5590 O   0  0  0  0  0  0  0  0  0  0  0  0
  132.5530  137.0550  147.0130 C   0  0  0  0  0  1  0  0  0  0  0  0
  1 20  1  1  0  0  0
  1  2  1  0  0  0  0
  2  7  2  0  0  0  0
  2  3  1  0  0  0  0
  3  4  2  0  0  0  0
  5  4  1  0  0  0  0
  6  5  2  0  0  0  0
  7  6  1  0  0  0  0
  8  9  2  0  0  0  0
  8  7  1  0  0  0  0
 10  8  1  0  0  0  0
 11 10  2  0  0  0  0
 12 11  1  0  0  0  0
 13 12  2  0  0  0  0
 13 14  1  0  0  0  0
 14 15  2  0  0  0  0
 15 10  1  0  0  0  0
 15  1  1  0  0  0  0
 16  6  1  0  0  0  0
 17 16  1  0  0  0  0
 18 11  1  0  0  0  0
 19 18  1  0  0  0  0
 21 24  1  0  0  0  0
 21 22  1  0  0  0  0
 22 20  1  0  0  0  0
 23 22  2  0  0  0  0
 25 21  1  0  0  0  0
 26 31  2  0  0  0  0
 26 27  1  0  0  0  0
 27 28  2  0  0  0  0
 28 29  1  0  0  0  0
 29 25  1  0  0  0  0
 30 29  2  0  0  0  0
 31 30  1  0  0  0  0
 32 33  1  0  0  0  0
 33 26  1  0  0  0  0
 34 35  1  0  0  0  0
 34 31  1  0  0  0  0
M  END
>  <MODEL>
4

>  <REMARK>
 VINA RESULT:    -8.346      1.662      2.511
 INTER + INTRA:         -13.681
 INTER:                 -12.645
 INTRA:                  -1.036
 UNBOUND:                -1.920
  Name = CHEMBL3633643
  10 active torsions:
  status: ('A' for Active; 'I' for Inactive)
    1  A    between atoms: C_1  and  O_2
    2  A    between atoms: O_2  and  C_3
    3  A    between atoms: C_6  and  C_7
    4  A    between atoms: C_7  and  N_8
    5  A    between atoms: C_9  and  C_11
    6  A    between atoms: C_11  and  C_12
    7  A    between atoms: C_17  and  O_18
    8  A    between atoms: C_23  and  O_24
    9  A    between atoms: C_30  and  O_31
   10  A    between atoms: O_31  and  C_32
                            x       y       z     vdW  Elec       q    Type
                         _______ _______ _______ _____ _____    ______ ____

>  <TORSDO>
F 8

>  <SCORE>
-8.346

>  <RMSD_LB>
1.662

>  <RMSD_UB>
2.511

$$$$
CHEMBL3633643
 OpenBabel10172500003D

 35 38  0  0  1  0  0  0  0  0999 V2000
  135.8600  135.5420  149.9510 C   0  0  1  0  0  3  0  0  0  0  0  0
  134.4980  135.1660  149.3770 C   0  0  0  0  0  0  0  0  0  0  0  0
  133.6540  134.2370  149.9970 C   0  0  0  0  0  3  0  0  0  0  0  0
  132.9110  133.3600  149.2110 C   0  0  0  0  0  3  0  0  0  0  0  0
  133.0080  133.4210  147.8220 C   0  0  0  0  0  3  0  0  0  0  0  0
  133.6880  134.4790  147.2200 C   0  0  0  0  0  0  0  0  0  0  0  0
  134.3410  135.4270  148.0070 C   0  0  0  0  0  0  0  0  0  0  0  0
  134.9620  136.6630  147.4550 C   0  0  0  0  0  0  0  0  0  0  0  0
  134.6420  137.1210  146.3600 O   0  0  0  0  0  0  0  0  0  0  0  0
  135.9350  137.4270  148.2860 C   0  0  0  0  0  0  0  0  0  0  0  0
  136.5020  138.6120  147.7900 C   0  0  0  0  0  0  0  0  0  0  0  0
  137.4740  139.2890  148.5180 C   0  0  0  0  0  3  0  0  0  0  0  0
  137.8720  138.8000  149.7600 C   0  0  0  0  0  3  0  0  0  0  0  0
  137.3020  137.6330  150.2730 C   0  0  0  0  0  3  0  0  0  0  0  0
  136.3340  136.9240  149.5440 C   0  0  0  0  0  0  0  0  0  0  0  0
  133.8210  134.5050  145.8620 O   0  0  0  0  0  0  0  0  0  0  0  0
  134.1830  133.7670  145.4120 H   0  0  0  0  0  0  0  0  0  0  0  0
  136.1740  139.1530  146.5750 O   0  0  0  0  0  0  0  0  0  0  0  0
  135.9770  138.5920  145.8510 H   0  0  0  0  0  0  0  0  0  0  0  0
  136.2780  134.9670  151.3160 C   0  0  0  0  0  2  0  0  0  0  0  0
  135.8370  134.8220  153.6810 N   0  0  0  0  0  0  0  0  0  0  0  0
  135.5200  135.4850  152.5110 C   0  0  0  0  0  0  0  0  0  0  0  0
  134.6590  136.3530  152.4420 O   0  0  0  0  0  0  0  0  0  0  0  0
  136.5900  134.1880  153.6940 H   0  0  0  0  0  0  0  0  0  0  0  0
  135.0740  135.0510  154.8880 C   0  0  0  0  0  2  0  0  0  0  0  0
  137.3220  137.4340  157.7330 C   0  0  0  0  0  0  0  0  0  0  0  0
  136.5950  136.3040  158.1440 C   0  0  0  0  0  3  0  0  0  0  0  0
  135.8740  135.5480  157.2240 C   0  0  0  0  0  3  0  0  0  0  0  0
  135.8270  135.9010  155.8740 C   0  0  0  0  0  0  0  0  0  0  0  0
  136.5400  137.0290  155.4650 C   0  0  0  0  0  3  0  0  0  0  0  0
  137.2970  137.7870  156.3700 C   0  0  0  0  0  0  0  0  0  0  0  0
  137.8780  137.9590  159.9880 C   0  0  0  0  0  1  0  0  0  0  0  0
  137.9940  138.2530  158.6020 O   0  0  0  0  0  0  0  0  0  0  0  0
  137.9300  138.8550  155.7800 O   0  0  0  0  0  0  0  0  0  0  0  0
  138.9050  138.5500  154.7890 C   0  0  0  0  0  1  0  0  0  0  0  0
  1 20  1  1  0  0  0
  2  1  1  0  0  0  0
  2  3  1  0  0  0  0
  4  3  2  0  0  0  0
  5  4  1  0  0  0  0
  6  5  2  0  0  0  0
  6  7  1  0  0  0  0
  7  2  2  0  0  0  0
  8  7  1  0  0  0  0
  8 10  1  0  0  0  0
  9  8  2  0  0  0  0
 10 15  1  0  0  0  0
 11 10  2  0  0  0  0
 11 12  1  0  0  0  0
 12 13  2  0  0  0  0
 13 14  1  0  0  0  0
 15  1  1  0  0  0  0
 15 14  2  0  0  0  0
 16  6  1  0  0  0  0
 17 16  1  0  0  0  0
 18 11  1  0  0  0  0
 19 18  1  0  0  0  0
 20 22  1  0  0  0  0
 21 24  1  0  0  0  0
 21 25  1  0  0  0  0
 22 21  1  0  0  0  0
 23 22  2  0  0  0  0
 25 29  1  0  0  0  0
 26 27  1  0  0  0  0
 26 33  1  0  0  0  0
 28 27  2  0  0  0  0
 29 28  1  0  0  0  0
 30 29  2  0  0  0  0
 30 31  1  0  0  0  0
 31 26  2  0  0  0  0
 33 32  1  0  0  0  0
 34 31  1  0  0  0  0
 35 34  1  0  0  0  0
M  END
>  <MODEL>
5

>  <REMARK>
 VINA RESULT:    -8.172      2.092      8.728
 INTER + INTRA:         -13.435
 INTER:                 -12.954
 INTRA:                  -0.481
 UNBOUND:                -1.920
  Name = CHEMBL3633643
  10 active torsions:
  status: ('A' for Active; 'I' for Inactive)
    1  A    between atoms: C_1  and  O_2
    2  A    between atoms: O_2  and  C_3
    3  A    between atoms: C_6  and  C_7
    4  A    between atoms: C_7  and  N_8
    5  A    between atoms: C_9  and  C_11
    6  A    between atoms: C_11  and  C_12
    7  A    between atoms: C_17  and  O_18
    8  A    between atoms: C_23  and  O_24
    9  A    between atoms: C_30  and  O_31
   10  A    between atoms: O_31  and  C_32
                            x       y       z     vdW  Elec       q    Type
                         _______ _______ _______ _____ _____    ______ ____

>  <TORSDO>
F 8

>  <SCORE>
-8.172

>  <RMSD_LB>
2.092

>  <RMSD_UB>
8.728

$$$$
CHEMBL3633643
 OpenBabel10172500003D

 35 38  0  0  1  0  0  0  0  0999 V2000
  146.7950  139.1430  151.0850 C   0  0  1  0  0  3  0  0  0  0  0  0
  146.9530  140.6590  151.1260 C   0  0  0  0  0  0  0  0  0  0  0  0
  146.5130  141.4870  150.0860 C   0  0  0  0  0  3  0  0  0  0  0  0
  147.2710  142.6000  149.7330 C   0  0  0  0  0  3  0  0  0  0  0  0
  148.4500  142.8820  150.4210 C   0  0  0  0  0  3  0  0  0  0  0  0
  148.7640  142.1730  151.5790 C   0  0  0  0  0  0  0  0  0  0  0  0
  147.9450  141.1270  152.0020 C   0  0  0  0  0  0  0  0  0  0  0  0
  148.1230  140.4190  153.2990 C   0  0  0  0  0  0  0  0  0  0  0  0
  148.7460  140.9170  154.2340 O   0  0  0  0  0  0  0  0  0  0  0  0
  147.4540  139.1040  153.5130 C   0  0  0  0  0  0  0  0  0  0  0  0
  147.5870  138.4420  154.7440 C   0  0  0  0  0  0  0  0  0  0  0  0
  147.0400  137.1780  154.9290 C   0  0  0  0  0  3  0  0  0  0  0  0
  146.3340  136.5720  153.8920 C   0  0  0  0  0  3  0  0  0  0  0  0
  146.1770  137.2290  152.6690 C   0  0  0  0  0  3  0  0  0  0  0  0
  146.7400  138.4980  152.4560 C   0  0  0  0  0  0  0  0  0  0  0  0
  149.9440  142.4220  152.2190 O   0  0  0  0  0  0  0  0  0  0  0  0
  150.1030  143.2640  152.5990 H   0  0  0  0  0  0  0  0  0  0  0  0
  148.2740  138.9630  155.8100 O   0  0  0  0  0  0  0  0  0  0  0  0
  148.7360  139.7720  155.7170 H   0  0  0  0  0  0  0  0  0  0  0  0
  146.0270  138.5040  149.9140 C   0  0  0  0  0  2  0  0  0  0  0  0
  143.9880  137.2930  150.3460 N   0  0  0  0  0  0  0  0  0  0  0  0
  144.5240  138.5250  150.0200 C   0  0  0  0  0  0  0  0  0  0  0  0
  143.8420  139.5100  149.7710 O   0  0  0  0  0  0  0  0  0  0  0  0
  144.5850  136.5570  150.6100 H   0  0  0  0  0  0  0  0  0  0  0  0
  142.5590  137.0770  150.3040 C   0  0  0  0  0  2  0  0  0  0  0  0
  140.5920  138.3020  153.9720 C   0  0  0  0  0  0  0  0  0  0  0  0
  139.8540  138.0010  152.8160 C   0  0  0  0  0  3  0  0  0  0  0  0
  140.4940  137.6130  151.6420 C   0  0  0  0  0  3  0  0  0  0  0  0
  141.8860  137.5350  151.5680 C   0  0  0  0  0  0  0  0  0  0  0  0
  142.6230  137.8450  152.7120 C   0  0  0  0  0  3  0  0  0  0  0  0
  141.9960  138.2100  153.9130 C   0  0  0  0  0  0  0  0  0  0  0  0
  139.6660  137.7770  156.1010 C   0  0  0  0  0  1  0  0  0  0  0  0
  140.0220  138.7540  155.1320 O   0  0  0  0  0  0  0  0  0  0  0  0
  142.8860  138.4720  154.9270 O   0  0  0  0  0  0  0  0  0  0  0  0
  143.8710  139.4670  154.6690 C   0  0  0  0  0  1  0  0  0  0  0  0
  1 20  1  1  0  0  0
  1  2  1  0  0  0  0
  1 15  1  0  0  0  0
  2  7  1  0  0  0  0
  3  2  2  0  0  0  0
  4  3  1  0  0  0  0
  4  5  2  0  0  0  0
  5  6  1  0  0  0  0
  6  7  2  0  0  0  0
  6 16  1  0  0  0  0
  7  8  1  0  0  0  0
  8 10  1  0  0  0  0
  8  9  2  0  0  0  0
 10 11  1  0  0  0  0
 11 12  2  0  0  0  0
 11 18  1  0  0  0  0
 13 12  1  0  0  0  0
 14 13  2  0  0  0  0
 15 14  1  0  0  0  0
 15 10  2  0  0  0  0
 16 17  1  0  0  0  0
 19 18  1  0  0  0  0
 20 22  1  0  0  0  0
 21 24  1  0  0  0  0
 22 21  1  0  0  0  0
 23 22  2  0  0  0  0
 25 21  1  0  0  0  0
 25 29  1  0  0  0  0
 26 33  1  0  0  0  0
 27 26  2  0  0  0  0
 28 27  1  0  0  0  0
 29 28  2  0  0  0  0
 29 30  1  0  0  0  0
 30 31  2  0  0  0  0
 31 26  1  0  0  0  0
 31 34  1  0  0  0  0
 33 32  1  0  0  0  0
 35 34  1  0  0  0  0
M  END
>  <MODEL>
6

>  <REMARK>
 VINA RESULT:    -8.142      7.626     11.773
 INTER + INTRA:         -13.394
 INTER:                 -12.402
 INTRA:                  -0.992
 UNBOUND:                -1.920
  Name = CHEMBL3633643
  10 active torsions:
  status: ('A' for Active; 'I' for Inactive)
    1  A    between atoms: C_1  and  O_2
    2  A    between atoms: O_2  and  C_3
    3  A    between atoms: C_6  and  C_7
    4  A    between atoms: C_7  and  N_8
    5  A    between atoms: C_9  and  C_11
    6  A    between atoms: C_11  and  C_12
    7  A    between atoms: C_17  and  O_18
    8  A    between atoms: C_23  and  O_24
    9  A    between atoms: C_30  and  O_31
   10  A    between atoms: O_31  and  C_32
                            x       y       z     vdW  Elec       q    Type
                         _______ _______ _______ _____ _____    ______ ____

>  <TORSDO>
F 8

>  <SCORE>
-8.142

>  <RMSD_LB>
7.626

>  <RMSD_UB>
11.773

$$$$
CHEMBL3633643
 OpenBabel10172500003D

 35 38  0  0  1  0  0  0  0  0999 V2000
  135.2350  135.5780  144.8550 C   0  0  1  0  0  3  0  0  0  0  0  0
  134.1050  135.5050  145.8760 C   0  0  0  0  0  0  0  0  0  0  0  0
  133.1830  136.5430  146.0490 C   0  0  0  0  0  3  0  0  0  0  0  0
  132.7340  136.8510  147.3310 C   0  0  0  0  0  3  0  0  0  0  0  0
  133.2000  136.1200  148.4230 C   0  0  0  0  0  3  0  0  0  0  0  0
  133.9520  134.9650  148.2140 C   0  0  0  0  0  0  0  0  0  0  0  0
  134.3090  134.5880  146.9200 C   0  0  0  0  0  0  0  0  0  0  0  0
  134.9800  133.2990  146.5970 C   0  0  0  0  0  0  0  0  0  0  0  0
  134.9420  132.3350  147.3590 O   0  0  0  0  0  0  0  0  0  0  0  0
  135.6440  133.1300  145.2730 C   0  0  0  0  0  0  0  0  0  0  0  0
  136.2520  131.9080  144.9440 C   0  0  0  0  0  0  0  0  0  0  0  0
  136.9470  131.7640  143.7490 C   0  0  0  0  0  3  0  0  0  0  0  0
  137.0240  132.8350  142.8610 C   0  0  0  0  0  3  0  0  0  0  0  0
  136.4070  134.0500  143.1680 C   0  0  0  0  0  3  0  0  0  0  0  0
  135.7170  134.2210  144.3790 C   0  0  0  0  0  0  0  0  0  0  0  0
  134.4450  134.2830  149.2880 O   0  0  0  0  0  0  0  0  0  0  0  0
  133.9800  133.5430  149.6280 H   0  0  0  0  0  0  0  0  0  0  0  0
  136.2320  130.8120  145.7660 O   0  0  0  0  0  0  0  0  0  0  0  0
  137.0250  130.3430  145.9380 H   0  0  0  0  0  0  0  0  0  0  0  0
  135.3030  136.7850  143.9030 C   0  0  0  0  0  2  0  0  0  0  0  0
  136.8490  137.8340  145.4260 N   0  0  0  0  0  0  0  0  0  0  0  0
  135.8570  138.0580  144.4880 C   0  0  0  0  0  0  0  0  0  0  0  0
  135.4260  139.1710  144.2200 O   0  0  0  0  0  0  0  0  0  0  0  0
  137.2100  136.9270  145.5460 H   0  0  0  0  0  0  0  0  0  0  0  0
  137.3620  138.9210  146.2290 C   0  0  0  0  0  2  0  0  0  0  0  0
  137.6150  137.7950  150.4110 C   0  0  0  0  0  0  0  0  0  0  0  0
  136.7740  137.1070  149.5220 C   0  0  0  0  0  3  0  0  0  0  0  0
  136.6960  137.4780  148.1830 C   0  0  0  0  0  3  0  0  0  0  0  0
  137.4290  138.5580  147.6870 C   0  0  0  0  0  0  0  0  0  0  0  0
  138.2570  139.2510  148.5700 C   0  0  0  0  0  3  0  0  0  0  0  0
  138.3720  138.8750  149.9170 C   0  0  0  0  0  0  0  0  0  0  0  0
  136.7790  136.5420  152.2550 C   0  0  0  0  0  1  0  0  0  0  0  0
  137.6810  137.5190  151.7510 O   0  0  0  0  0  0  0  0  0  0  0  0
  139.2370  139.6730  150.6270 O   0  0  0  0  0  0  0  0  0  0  0  0
  140.3850  140.1470  149.9300 C   0  0  0  0  0  1  0  0  0  0  0  0
  1 20  1  6  0  0  0
  1  2  1  0  0  0  0
  2  3  2  0  0  0  0
  2  7  1  0  0  0  0
  3  4  1  0  0  0  0
  4  5  2  0  0  0  0
  6  5  1  0  0  0  0
  6 16  1  0  0  0  0
  7  6  2  0  0  0  0
  8  7  1  0  0  0  0
  8  9  2  0  0  0  0
 10  8  1  0  0  0  0
 11 10  1  0  0  0  0
 11 18  1  0  0  0  0
 12 11  2  0  0  0  0
 13 14  2  0  0  0  0
 13 12  1  0  0  0  0
 14 15  1  0  0  0  0
 15  1  1  0  0  0  0
 15 10  2  0  0  0  0
 16 17  1  0  0  0  0
 18 19  1  0  0  0  0
 20 22  1  0  0  0  0
 21 24  1  0  0  0  0
 21 25  1  0  0  0  0
 22 21  1  0  0  0  0
 23 22  2  0  0  0  0
 25 29  1  0  0  0  0
 26 33  1  0  0  0  0
 27 26  2  0  0  0  0
 28 27  1  0  0  0  0
 29 28  2  0  0  0  0
 29 30  1  0  0  0  0
 30 31  2  0  0  0  0
 31 26  1  0  0  0  0
 31 34  1  0  0  0  0
 33 32  1  0  0  0  0
 35 34  1  0  0  0  0
M  END
>  <MODEL>
7

>  <REMARK>
 VINA RESULT:    -8.030      4.199      9.799
 INTER + INTRA:         -13.236
 INTER:                 -11.446
 INTRA:                  -1.790
 UNBOUND:                -1.920
  Name = CHEMBL3633643
  10 active torsions:
  status: ('A' for Active; 'I' for Inactive)
    1  A    between atoms: C_1  and  O_2
    2  A    between atoms: O_2  and  C_3
    3  A    between atoms: C_6  and  C_7
    4  A    between atoms: C_7  and  N_8
    5  A    between atoms: C_9  and  C_11
    6  A    between atoms: C_11  and  C_12
    7  A    between atoms: C_17  and  O_18
    8  A    between atoms: C_23  and  O_24
    9  A    between atoms: C_30  and  O_31
   10  A    between atoms: O_31  and  C_32
                            x       y       z     vdW  Elec       q    Type
                         _______ _______ _______ _____ _____    ______ ____

>  <TORSDO>
F 8

>  <SCORE>
-8.030

>  <RMSD_LB>
4.199

>  <RMSD_UB>
9.799

$$$$
CHEMBL3633643
 OpenBabel10172500003D

 35 38  0  0  1  0  0  0  0  0999 V2000
  135.2590  135.4720  150.5840 C   0  0  1  0  0  3  0  0  0  0  0  0
  134.6370  135.0400  149.2610 C   0  0  0  0  0  0  0  0  0  0  0  0
  133.2530  134.9330  149.0820 C   0  0  0  0  0  3  0  0  0  0  0  0
  132.7430  133.8960  148.3050 C   0  0  0  0  0  3  0  0  0  0  0  0
  133.6140  132.9840  147.7080 C   0  0  0  0  0  3  0  0  0  0  0  0
  134.9870  133.2240  147.7240 C   0  0  0  0  0  0  0  0  0  0  0  0
  135.4960  134.3280  148.4080 C   0  0  0  0  0  0  0  0  0  0  0  0
  136.9260  134.7380  148.3530 C   0  0  0  0  0  0  0  0  0  0  0  0
  137.6720  134.3800  147.4450 O   0  0  0  0  0  0  0  0  0  0  0  0
  137.4550  135.6870  149.3730 C   0  0  0  0  0  0  0  0  0  0  0  0
  138.7930  136.1080  149.3130 C   0  0  0  0  0  0  0  0  0  0  0  0
  139.3230  136.9240  150.3050 C   0  0  0  0  0  3  0  0  0  0  0  0
  138.5130  137.3460  151.3570 C   0  0  0  0  0  3  0  0  0  0  0  0
  137.1750  136.9500  151.4190 C   0  0  0  0  0  3  0  0  0  0  0  0
  136.6270  136.1090  150.4370 C   0  0  0  0  0  0  0  0  0  0  0  0
  135.8350  132.3030  147.1810 O   0  0  0  0  0  0  0  0  0  0  0  0
  136.3330  132.5180  146.4170 H   0  0  0  0  0  0  0  0  0  0  0  0
  139.6570  135.7290  148.3190 O   0  0  0  0  0  0  0  0  0  0  0  0
  139.4240  135.0320  147.7370 H   0  0  0  0  0  0  0  0  0  0  0  0
  134.3350  135.9120  151.7330 C   0  0  0  0  0  2  0  0  0  0  0  0
  134.5530  135.5320  154.1040 N   0  0  0  0  0  0  0  0  0  0  0  0
  134.2220  134.9560  152.8920 C   0  0  0  0  0  0  0  0  0  0  0  0
  133.9370  133.7720  152.7670 O   0  0  0  0  0  0  0  0  0  0  0  0
  134.6990  136.5040  154.1580 H   0  0  0  0  0  0  0  0  0  0  0  0
  134.6870  134.7210  155.2940 C   0  0  0  0  0  2  0  0  0  0  0  0
  136.8620  136.7480  158.4540 C   0  0  0  0  0  0  0  0  0  0  0  0
  136.0400  135.6430  158.7290 C   0  0  0  0  0  3  0  0  0  0  0  0
  135.3430  135.0020  157.7090 C   0  0  0  0  0  3  0  0  0  0  0  0
  135.4160  135.4490  156.3890 C   0  0  0  0  0  0  0  0  0  0  0  0
  136.2240  136.5530  156.1140 C   0  0  0  0  0  3  0  0  0  0  0  0
  136.9580  137.1960  157.1220 C   0  0  0  0  0  0  0  0  0  0  0  0
  136.7330  138.3340  160.2240 C   0  0  0  0  0  1  0  0  0  0  0  0
  137.5170  137.4590  159.4240 O   0  0  0  0  0  0  0  0  0  0  0  0
  137.6960  138.2580  156.6570 O   0  0  0  0  0  0  0  0  0  0  0  0
  137.8060  138.3880  155.2440 C   0  0  0  0  0  1  0  0  0  0  0  0
  1 20  1  6  0  0  0
  2  1  1  0  0  0  0
  3  2  1  0  0  0  0
  4  3  2  0  0  0  0
  5  6  2  0  0  0  0
  5  4  1  0  0  0  0
  6  7  1  0  0  0  0
  7  2  2  0  0  0  0
  8  7  1  0  0  0  0
  8 10  1  0  0  0  0
  9  8  2  0  0  0  0
 10 15  1  0  0  0  0
 11 10  2  0  0  0  0
 11 12  1  0  0  0  0
 12 13  2  0  0  0  0
 13 14  1  0  0  0  0
 15  1  1  0  0  0  0
 15 14  2  0  0  0  0
 16  6  1  0  0  0  0
 17 16  1  0  0  0  0
 18 11  1  0  0  0  0
 19 18  1  0  0  0  0
 20 22  1  0  0  0  0
 21 24  1  0  0  0  0
 21 25  1  0  0  0  0
 22 21  1  0  0  0  0
 23 22  2  0  0  0  0
 25 29  1  0  0  0  0
 26 27  1  0  0  0  0
 26 33  1  0  0  0  0
 28 27  2  0  0  0  0
 29 28  1  0  0  0  0
 30 29  2  0  0  0  0
 30 31  1  0  0  0  0
 31 26  2  0  0  0  0
 33 32  1  0  0  0  0
 34 31  1  0  0  0  0
 35 34  1  0  0  0  0
M  END
>  <MODEL>
8

>  <REMARK>
 VINA RESULT:    -7.958      2.097      8.587
 INTER + INTRA:         -13.134
 INTER:                 -12.180
 INTRA:                  -0.954
 UNBOUND:                -1.920
  Name = CHEMBL3633643
  10 active torsions:
  status: ('A' for Active; 'I' for Inactive)
    1  A    between atoms: C_1  and  O_2
    2  A    between atoms: O_2  and  C_3
    3  A    between atoms: C_6  and  C_7
    4  A    between atoms: C_7  and  N_8
    5  A    between atoms: C_9  and  C_11
    6  A    between atoms: C_11  and  C_12
    7  A    between atoms: C_17  and  O_18
    8  A    between atoms: C_23  and  O_24
    9  A    between atoms: C_30  and  O_31
   10  A    between atoms: O_31  and  C_32
                            x       y       z     vdW  Elec       q    Type
                         _______ _______ _______ _____ _____    ______ ____

>  <TORSDO>
F 8

>  <SCORE>
-7.958

>  <RMSD_LB>
2.097

>  <RMSD_UB>
8.587

$$$$
CHEMBL3633643
 OpenBabel10172500003D

 35 38  0  0  1  0  0  0  0  0999 V2000
  136.7870  134.7600  149.0270 C   0  0  1  0  0  3  0  0  0  0  0  0
  136.5240  133.8370  147.8430 C   0  0  0  0  0  0  0  0  0  0  0  0
  137.5100  133.5280  146.8990 C   0  0  0  0  0  3  0  0  0  0  0  0
  137.1570  133.4080  145.5570 C   0  0  0  0  0  3  0  0  0  0  0  0
  135.8300  133.5870  145.1710 C   0  0  0  0  0  3  0  0  0  0  0  0
  134.8330  133.6880  146.1400 C   0  0  0  0  0  0  0  0  0  0  0  0
  135.1710  133.6940  147.4930 C   0  0  0  0  0  0  0  0  0  0  0  0
  134.1660  133.6500  148.5900 C   0  0  0  0  0  0  0  0  0  0  0  0
  133.0200  133.2430  148.4080 O   0  0  0  0  0  0  0  0  0  0  0  0
  134.5750  134.0200  149.9740 C   0  0  0  0  0  0  0  0  0  0  0  0
  133.6450  133.9500  151.0230 C   0  0  0  0  0  0  0  0  0  0  0  0
  133.9890  134.3730  152.3020 C   0  0  0  0  0  3  0  0  0  0  0  0
  135.2740  134.8490  152.5490 C   0  0  0  0  0  3  0  0  0  0  0  0
  136.2150  134.9060  151.5180 C   0  0  0  0  0  3  0  0  0  0  0  0
  135.8810  134.5020  150.2160 C   0  0  0  0  0  0  0  0  0  0  0  0
  133.5430  133.9120  145.7540 O   0  0  0  0  0  0  0  0  0  0  0  0
  133.3450  134.0710  144.8520 H   0  0  0  0  0  0  0  0  0  0  0  0
  132.3590  133.5050  150.8610 O   0  0  0  0  0  0  0  0  0  0  0  0
  132.0970  132.6870  151.2360 H   0  0  0  0  0  0  0  0  0  0  0  0
  138.2140  135.2860  149.2600 C   0  0  0  0  0  2  0  0  0  0  0  0
  137.6790  137.5210  148.5330 N   0  0  0  0  0  0  0  0  0  0  0  0
  138.6090  136.5000  148.4600 C   0  0  0  0  0  0  0  0  0  0  0  0
  139.6110  136.5530  147.7590 O   0  0  0  0  0  0  0  0  0  0  0  0
  136.9330  137.4560  149.1710 H   0  0  0  0  0  0  0  0  0  0  0  0
  137.7940  138.6840  147.6820 C   0  0  0  0  0  2  0  0  0  0  0  0
  134.7760  138.7090  144.5650 C   0  0  0  0  0  0  0  0  0  0  0  0
  135.8760  139.5820  144.5200 C   0  0  0  0  0  3  0  0  0  0  0  0
  136.8370  139.5700  145.5270 C   0  0  0  0  0  3  0  0  0  0  0  0
  136.7270  138.7120  146.6230 C   0  0  0  0  0  0  0  0  0  0  0  0
  135.6300  137.8510  146.6750 C   0  0  0  0  0  3  0  0  0  0  0  0
  134.6660  137.8270  145.6570 C   0  0  0  0  0  0  0  0  0  0  0  0
  133.5380  139.9470  142.9520 C   0  0  0  0  0  1  0  0  0  0  0  0
  133.7670  138.7240  143.6400 O   0  0  0  0  0  0  0  0  0  0  0  0
  133.6660  136.9120  145.8830 O   0  0  0  0  0  0  0  0  0  0  0  0
  132.7460  137.2180  146.9260 C   0  0  0  0  0  1  0  0  0  0  0  0
  1 20  1  1  0  0  0
  1 15  1  0  0  0  0
  2  1  1  0  0  0  0
  3  2  2  0  0  0  0
  4  3  1  0  0  0  0
  5  4  2  0  0  0  0
  5  6  1  0  0  0  0
  6  7  2  0  0  0  0
  7  2  1  0  0  0  0
  7  8  1  0  0  0  0
  8 10  1  0  0  0  0
  9  8  2  0  0  0  0
 10 15  2  0  0  0  0
 10 11  1  0  0  0  0
 11 12  2  0  0  0  0
 12 13  1  0  0  0  0
 14 13  2  0  0  0  0
 15 14  1  0  0  0  0
 16  6  1  0  0  0  0
 17 16  1  0  0  0  0
 18 11  1  0  0  0  0
 18 19  1  0  0  0  0
 21 24  1  0  0  0  0
 22 21  1  0  0  0  0
 22 20  1  0  0  0  0
 23 22  2  0  0  0  0
 25 21  1  0  0  0  0
 26 31  1  0  0  0  0
 27 26  2  0  0  0  0
 27 28  1  0  0  0  0
 28 29  2  0  0  0  0
 29 30  1  0  0  0  0
 29 25  1  0  0  0  0
 31 34  1  0  0  0  0
 31 30  2  0  0  0  0
 32 33  1  0  0  0  0
 33 26  1  0  0  0  0
 34 35  1  0  0  0  0
M  END
>  <MODEL>
9

>  <REMARK>
 VINA RESULT:    -7.814      4.652      8.469
 INTER + INTRA:         -12.931
 INTER:                 -11.012
 INTRA:                  -1.920
 UNBOUND:                -1.920
  Name = CHEMBL3633643
  10 active torsions:
  status: ('A' for Active; 'I' for Inactive)
    1  A    between atoms: C_1  and  O_2
    2  A    between atoms: O_2  and  C_3
    3  A    between atoms: C_6  and  C_7
    4  A    between atoms: C_7  and  N_8
    5  A    between atoms: C_9  and  C_11
    6  A    between atoms: C_11  and  C_12
    7  A    between atoms: C_17  and  O_18
    8  A    between atoms: C_23  and  O_24
    9  A    between atoms: C_30  and  O_31
   10  A    between atoms: O_31  and  C_32
                            x       y       z     vdW  Elec       q    Type
                         _______ _______ _______ _____ _____    ______ ____

>  <TORSDO>
F 8

>  <SCORE>
-7.814

>  <RMSD_LB>
4.652

>  <RMSD_UB>
8.469

$$$$
