CHEMBL1893786
 OpenBabel10172500393D

 31 33  0  0  0  0  0  0  0  0999 V2000
  145.7350  136.9300  154.0850 C   0  0  0  0  0  2  0  0  0  0  0  0
  145.5950  136.2570  151.7440 N   0  0  0  0  0  0  0  0  0  0  0  0
  146.4080  136.7940  152.7190 C   0  0  0  0  0  0  0  0  0  0  0  0
  147.5910  137.0680  152.5410 O   0  0  0  0  0  0  0  0  0  0  0  0
  144.6720  136.0070  151.9810 H   0  0  0  0  0  0  0  0  0  0  0  0
  146.0420  136.0490  150.3900 C   0  0  0  0  0  2  0  0  0  0  0  0
  145.5940  139.5460  147.8570 C   0  0  0  0  0  0  0  0  0  0  0  0
  146.8620  139.0260  148.1490 C   0  0  0  0  0  3  0  0  0  0  0  0
  147.0080  137.9040  148.9700 C   0  0  0  0  0  3  0  0  0  0  0  0
  145.8910  137.2800  149.5340 C   0  0  0  0  0  0  0  0  0  0  0  0
  144.6240  137.8040  149.2480 C   0  0  0  0  0  3  0  0  0  0  0  0
  144.4640  138.9180  148.4070 C   0  0  0  0  0  0  0  0  0  0  0  0
  146.5780  141.3320  146.6250 C   0  0  0  0  0  1  0  0  0  0  0  0
  145.4110  140.6890  147.1250 O   0  0  0  0  0  0  0  0  0  0  0  0
  143.1520  139.2870  148.2490 O   0  0  0  0  0  0  0  0  0  0  0  0
  142.5210  139.8910  149.3720 C   0  0  0  0  0  1  0  0  0  0  0  0
  145.4460  138.2790  154.4640 O   0  0  0  0  0  0  0  0  0  0  0  0
  146.4710  138.9400  155.0420 C   0  0  0  0  0  0  0  0  0  0  0  0
  146.9510  138.7110  156.1480 O   0  0  0  0  0  0  0  0  0  0  0  0
  146.8160  140.1440  154.2430 C   0  0  0  0  0  0  0  0  0  0  0  0
  145.8570  140.5770  153.3230 C   0  0  0  0  0  3  0  0  0  0  0  0
  146.2110  141.4760  152.3150 C   0  0  0  0  0  0  0  0  0  0  0  0
  145.2860  141.8330  151.3310 C   0  0  0  0  0  3  0  0  0  0  0  0
  145.7300  142.3410  150.1160 C   0  0  0  0  0  3  0  0  0  0  0  0
  147.0710  142.6790  149.9590 C   0  0  0  0  0  3  0  0  0  0  0  0
  147.9500  142.5740  151.0390 C   0  0  0  0  0  3  0  0  0  0  0  0
  147.5480  141.9300  152.2220 C   0  0  0  0  0  0  0  0  0  0  0  0
  148.4320  141.6560  153.2810 C   0  0  0  0  0  3  0  0  0  0  0  0
  148.0660  140.7510  154.2910 C   0  0  0  0  0  0  0  0  0  0  0  0
  148.9380  140.4760  155.3020 O   0  0  0  0  0  0  0  0  0  0  0  0
  149.1620  141.1420  155.9220 H   0  0  0  0  0  0  0  0  0  0  0  0
  1 17  1  0  0  0  0
  2  5  1  0  0  0  0
  2  3  1  0  0  0  0
  3  1  1  0  0  0  0
  4  3  2  0  0  0  0
  6  2  1  0  0  0  0
  7  8  2  0  0  0  0
  7 12  1  0  0  0  0
  8  9  1  0  0  0  0
  9 10  2  0  0  0  0
 10  6  1  0  0  0  0
 11 10  1  0  0  0  0
 12 11  2  0  0  0  0
 13 14  1  0  0  0  0
 14  7  1  0  0  0  0
 15 12  1  0  0  0  0
 15 16  1  0  0  0  0
 17 18  1  0  0  0  0
 18 19  2  0  0  0  0
 20 29  1  0  0  0  0
 20 18  1  0  0  0  0
 21 20  2  0  0  0  0
 22 21  1  0  0  0  0
 23 22  2  0  0  0  0
 24 23  1  0  0  0  0
 25 24  2  0  0  0  0
 25 26  1  0  0  0  0
 26 27  2  0  0  0  0
 27 22  1  0  0  0  0
 27 28  1  0  0  0  0
 28 29  2  0  0  0  0
 29 30  1  0  0  0  0
 30 31  1  0  0  0  0
M  END
>  <MODEL>
1

>  <REMARK>
 VINA RESULT:    -7.466      0.000      0.000
 INTER + INTRA:         -13.308
 INTER:                 -11.273
 INTRA:                  -2.034
 UNBOUND:                -2.132
  Name = CHEMBL1893786
  11 active torsions:
  status: ('A' for Active; 'I' for Inactive)
    1  A    between atoms: C_1  and  O_2
    2  A    between atoms: O_2  and  C_3
    3  A    between atoms: C_6  and  C_7
    4  A    between atoms: C_7  and  N_8
    5  A    between atoms: C_9  and  C_11
    6  A    between atoms: C_11  and  O_12
    7  A    between atoms: O_12  and  C_13
    8  A    between atoms: C_13  and  C_15
    9  A    between atoms: C_24  and  O_25
   10  A    between atoms: C_27  and  O_28
   11  A    between atoms: O_28  and  C_29
                            x       y       z     vdW  Elec       q    Type
                         _______ _______ _______ _____ _____    ______ ____

>  <TORSDO>
F 9

>  <SCORE>
-7.466

>  <RMSD_LB>
0.000

>  <RMSD_UB>
0.000

$$$$
CHEMBL1893786
 OpenBabel10172500393D

 31 33  0  0  0  0  0  0  0  0999 V2000
  148.4240  140.8520  154.5430 C   0  0  0  0  0  2  0  0  0  0  0  0
  146.6160  141.5620  153.0650 N   0  0  0  0  0  0  0  0  0  0  0  0
  147.9760  141.6030  153.2880 C   0  0  0  0  0  0  0  0  0  0  0  0
  148.7760  142.1230  152.5150 O   0  0  0  0  0  0  0  0  0  0  0  0
  146.0460  141.0730  153.7020 H   0  0  0  0  0  0  0  0  0  0  0  0
  145.9960  142.2100  151.9370 C   0  0  0  0  0  2  0  0  0  0  0  0
  145.1900  139.4100  148.7190 C   0  0  0  0  0  0  0  0  0  0  0  0
  146.4950  139.6140  149.1860 C   0  0  0  0  0  3  0  0  0  0  0  0
  146.7570  140.5210  150.2180 C   0  0  0  0  0  3  0  0  0  0  0  0
  145.7230  141.2590  150.8010 C   0  0  0  0  0  0  0  0  0  0  0  0
  144.4190  141.0600  150.3290 C   0  0  0  0  0  3  0  0  0  0  0  0
  144.1420  140.1360  149.3080 C   0  0  0  0  0  0  0  0  0  0  0  0
  145.9810  137.8640  147.0880 C   0  0  0  0  0  1  0  0  0  0  0  0
  144.9000  138.5930  147.6590 O   0  0  0  0  0  0  0  0  0  0  0  0
  142.8100  140.0840  148.9790 O   0  0  0  0  0  0  0  0  0  0  0  0
  141.8870  140.0450  150.0620 C   0  0  0  0  0  1  0  0  0  0  0  0
  148.5760  139.4420  154.3590 O   0  0  0  0  0  0  0  0  0  0  0  0
  147.8700  138.6750  155.2160 C   0  0  0  0  0  0  0  0  0  0  0  0
  148.2120  138.3480  156.3480 O   0  0  0  0  0  0  0  0  0  0  0  0
  146.6910  138.0920  154.5250 C   0  0  0  0  0  0  0  0  0  0  0  0
  146.9570  137.1500  153.5280 C   0  0  0  0  0  3  0  0  0  0  0  0
  145.9600  136.7980  152.6150 C   0  0  0  0  0  0  0  0  0  0  0  0
  146.2480  135.9360  151.5540 C   0  0  0  0  0  3  0  0  0  0  0  0
  145.4370  135.9350  150.4250 C   0  0  0  0  0  3  0  0  0  0  0  0
  144.2360  136.6390  150.4380 C   0  0  0  0  0  3  0  0  0  0  0  0
  143.8160  137.2840  151.6040 C   0  0  0  0  0  3  0  0  0  0  0  0
  144.6890  137.4120  152.6970 C   0  0  0  0  0  0  0  0  0  0  0  0
  144.3810  138.1830  153.8340 C   0  0  0  0  0  3  0  0  0  0  0  0
  145.3900  138.5310  154.7470 C   0  0  0  0  0  0  0  0  0  0  0  0
  145.0860  139.2950  155.8340 O   0  0  0  0  0  0  0  0  0  0  0  0
  145.7720  139.6370  156.3720 H   0  0  0  0  0  0  0  0  0  0  0  0
  2  3  1  0  0  0  0
  2  5  1  0  0  0  0
  3  1  1  0  0  0  0
  4  3  2  0  0  0  0
  6  2  1  0  0  0  0
  7  8  2  0  0  0  0
  7 12  1  0  0  0  0
  8  9  1  0  0  0  0
  9 10  2  0  0  0  0
 10  6  1  0  0  0  0
 11 10  1  0  0  0  0
 12 11  2  0  0  0  0
 13 14  1  0  0  0  0
 14  7  1  0  0  0  0
 15 12  1  0  0  0  0
 15 16  1  0  0  0  0
 17  1  1  0  0  0  0
 17 18  1  0  0  0  0
 18 19  2  0  0  0  0
 20 29  1  0  0  0  0
 20 18  1  0  0  0  0
 21 20  2  0  0  0  0
 22 27  1  0  0  0  0
 22 21  1  0  0  0  0
 23 22  2  0  0  0  0
 24 25  2  0  0  0  0
 24 23  1  0  0  0  0
 25 26  1  0  0  0  0
 26 27  2  0  0  0  0
 27 28  1  0  0  0  0
 28 29  2  0  0  0  0
 29 30  1  0  0  0  0
 30 31  1  0  0  0  0
M  END
>  <MODEL>
2

>  <REMARK>
 VINA RESULT:    -7.432      1.878      4.223
 INTER + INTRA:         -13.256
 INTER:                 -10.932
 INTRA:                  -2.324
 UNBOUND:                -2.132
  Name = CHEMBL1893786
  11 active torsions:
  status: ('A' for Active; 'I' for Inactive)
    1  A    between atoms: C_1  and  O_2
    2  A    between atoms: O_2  and  C_3
    3  A    between atoms: C_6  and  C_7
    4  A    between atoms: C_7  and  N_8
    5  A    between atoms: C_9  and  C_11
    6  A    between atoms: C_11  and  O_12
    7  A    between atoms: O_12  and  C_13
    8  A    between atoms: C_13  and  C_15
    9  A    between atoms: C_24  and  O_25
   10  A    between atoms: C_27  and  O_28
   11  A    between atoms: O_28  and  C_29
                            x       y       z     vdW  Elec       q    Type
                         _______ _______ _______ _____ _____    ______ ____

>  <TORSDO>
F 9

>  <SCORE>
-7.432

>  <RMSD_LB>
1.878

>  <RMSD_UB>
4.223

$$$$
CHEMBL1893786
 OpenBabel10172500393D

 31 33  0  0  0  0  0  0  0  0999 V2000
  146.3590  137.0340  153.5800 C   0  0  0  0  0  2  0  0  0  0  0  0
  144.5150  137.4130  152.0270 N   0  0  0  0  0  0  0  0  0  0  0  0
  145.6760  136.7030  152.2530 C   0  0  0  0  0  0  0  0  0  0  0  0
  146.0930  135.8260  151.5020 O   0  0  0  0  0  0  0  0  0  0  0  0
  144.2150  138.0580  152.7070 H   0  0  0  0  0  0  0  0  0  0  0  0
  143.7250  137.2460  150.8330 C   0  0  0  0  0  2  0  0  0  0  0  0
  139.4640  137.5070  151.6180 C   0  0  0  0  0  0  0  0  0  0  0  0
  139.9420  137.1840  150.3410 C   0  0  0  0  0  3  0  0  0  0  0  0
  141.3150  137.1060  150.0850 C   0  0  0  0  0  3  0  0  0  0  0  0
  142.2460  137.3640  151.0950 C   0  0  0  0  0  0  0  0  0  0  0  0
  141.7670  137.6940  152.3700 C   0  0  0  0  0  3  0  0  0  0  0  0
  140.3910  137.7530  152.6430 C   0  0  0  0  0  0  0  0  0  0  0  0
  137.2070  137.0120  151.0340 C   0  0  0  0  0  1  0  0  0  0  0  0
  138.1320  137.6720  151.8910 O   0  0  0  0  0  0  0  0  0  0  0  0
  140.1170  138.0960  153.9440 O   0  0  0  0  0  0  0  0  0  0  0  0
  139.4160  139.3170  154.1460 C   0  0  0  0  0  1  0  0  0  0  0  0
  145.7320  138.0880  154.3160 O   0  0  0  0  0  0  0  0  0  0  0  0
  146.5760  138.8830  155.0060 C   0  0  0  0  0  0  0  0  0  0  0  0
  146.7830  138.8460  156.2150 O   0  0  0  0  0  0  0  0  0  0  0  0
  147.0800  139.9730  154.1310 C   0  0  0  0  0  0  0  0  0  0  0  0
  146.1210  140.8380  153.5980 C   0  0  0  0  0  3  0  0  0  0  0  0
  146.4490  141.6700  152.5250 C   0  0  0  0  0  0  0  0  0  0  0  0
  145.4690  142.4610  151.9200 C   0  0  0  0  0  3  0  0  0  0  0  0
  145.6590  142.9260  150.6240 C   0  0  0  0  0  3  0  0  0  0  0  0
  146.8990  142.7730  150.0120 C   0  0  0  0  0  3  0  0  0  0  0  0
  147.9670  142.2200  150.7220 C   0  0  0  0  0  3  0  0  0  0  0  0
  147.7510  141.6190  151.9740 C   0  0  0  0  0  0  0  0  0  0  0  0
  148.7510  140.9100  152.6630 C   0  0  0  0  0  3  0  0  0  0  0  0
  148.4110  140.0760  153.7410 C   0  0  0  0  0  0  0  0  0  0  0  0
  149.3850  139.3760  154.3900 O   0  0  0  0  0  0  0  0  0  0  0  0
  149.8420  138.6890  153.9470 H   0  0  0  0  0  0  0  0  0  0  0  0
  1 17  1  0  0  0  0
  2  3  1  0  0  0  0
  2  5  1  0  0  0  0
  3  1  1  0  0  0  0
  4  3  2  0  0  0  0
  6 10  1  0  0  0  0
  6  2  1  0  0  0  0
  7 14  1  0  0  0  0
  7 12  1  0  0  0  0
  8  7  2  0  0  0  0
  9  8  1  0  0  0  0
  9 10  2  0  0  0  0
 10 11  1  0  0  0  0
 11 12  2  0  0  0  0
 12 15  1  0  0  0  0
 13 14  1  0  0  0  0
 15 16  1  0  0  0  0
 17 18  1  0  0  0  0
 18 19  2  0  0  0  0
 20 18  1  0  0  0  0
 21 20  2  0  0  0  0
 22 21  1  0  0  0  0
 23 22  2  0  0  0  0
 24 23  1  0  0  0  0
 25 24  2  0  0  0  0
 25 26  1  0  0  0  0
 26 27  2  0  0  0  0
 27 22  1  0  0  0  0
 27 28  1  0  0  0  0
 28 29  2  0  0  0  0
 29 20  1  0  0  0  0
 29 30  1  0  0  0  0
 31 30  1  0  0  0  0
M  END
>  <MODEL>
3

>  <REMARK>
 VINA RESULT:    -7.317      2.931      4.254
 INTER + INTRA:         -13.084
 INTER:                 -12.135
 INTRA:                  -0.949
 UNBOUND:                -2.132
  Name = CHEMBL1893786
  11 active torsions:
  status: ('A' for Active; 'I' for Inactive)
    1  A    between atoms: C_1  and  O_2
    2  A    between atoms: O_2  and  C_3
    3  A    between atoms: C_6  and  C_7
    4  A    between atoms: C_7  and  N_8
    5  A    between atoms: C_9  and  C_11
    6  A    between atoms: C_11  and  O_12
    7  A    between atoms: O_12  and  C_13
    8  A    between atoms: C_13  and  C_15
    9  A    between atoms: C_24  and  O_25
   10  A    between atoms: C_27  and  O_28
   11  A    between atoms: O_28  and  C_29
                            x       y       z     vdW  Elec       q    Type
                         _______ _______ _______ _____ _____    ______ ____

>  <TORSDO>
F 9

>  <SCORE>
-7.317

>  <RMSD_LB>
2.931

>  <RMSD_UB>
4.254

$$$$
CHEMBL1893786
 OpenBabel10172500393D

 31 33  0  0  0  0  0  0  0  0999 V2000
  145.8960  137.9220  148.2480 C   0  0  0  0  0  2  0  0  0  0  0  0
  145.9260  137.6510  150.6730 N   0  0  0  0  0  0  0  0  0  0  0  0
  145.5940  137.0580  149.4740 C   0  0  0  0  0  0  0  0  0  0  0  0
  145.1680  135.9110  149.3770 O   0  0  0  0  0  0  0  0  0  0  0  0
  146.3190  138.5530  150.6630 H   0  0  0  0  0  0  0  0  0  0  0  0
  145.7170  137.0000  151.9420 C   0  0  0  0  0  2  0  0  0  0  0  0
  142.3170  138.6810  154.0550 C   0  0  0  0  0  0  0  0  0  0  0  0
  143.6270  138.9170  154.4940 C   0  0  0  0  0  3  0  0  0  0  0  0
  144.7230  138.3710  153.8190 C   0  0  0  0  0  3  0  0  0  0  0  0
  144.5380  137.5610  152.6940 C   0  0  0  0  0  0  0  0  0  0  0  0
  143.2290  137.3190  152.2600 C   0  0  0  0  0  3  0  0  0  0  0  0
  142.1220  137.8810  152.9170 C   0  0  0  0  0  0  0  0  0  0  0  0
  140.6160  138.2330  155.6610 C   0  0  0  0  0  1  0  0  0  0  0  0
  141.2150  139.1290  154.7330 O   0  0  0  0  0  0  0  0  0  0  0  0
  140.9240  137.5270  152.3490 O   0  0  0  0  0  0  0  0  0  0  0  0
  140.3720  138.4390  151.4060 C   0  0  0  0  0  1  0  0  0  0  0  0
  146.7930  139.0060  148.5020 O   0  0  0  0  0  0  0  0  0  0  0  0
  146.2630  140.2360  148.3370 C   0  0  0  0  0  0  0  0  0  0  0  0
  145.9930  140.7720  147.2680 O   0  0  0  0  0  0  0  0  0  0  0  0
  146.2400  140.9590  149.6350 C   0  0  0  0  0  0  0  0  0  0  0  0
  147.4760  141.3710  150.1400 C   0  0  0  0  0  3  0  0  0  0  0  0
  147.5910  141.7550  151.4790 C   0  0  0  0  0  0  0  0  0  0  0  0
  148.8410  142.0690  152.0170 C   0  0  0  0  0  3  0  0  0  0  0  0
  149.0360  142.0090  153.3920 C   0  0  0  0  0  3  0  0  0  0  0  0
  147.9430  141.8360  154.2360 C   0  0  0  0  0  3  0  0  0  0  0  0
  146.6510  141.7930  153.7080 C   0  0  0  0  0  3  0  0  0  0  0  0
  146.4550  141.7070  152.3190 C   0  0  0  0  0  0  0  0  0  0  0  0
  145.1900  141.5050  151.7380 C   0  0  0  0  0  3  0  0  0  0  0  0
  145.0840  141.1200  150.3910 C   0  0  0  0  0  0  0  0  0  0  0  0
  143.8550  140.9060  149.8420 O   0  0  0  0  0  0  0  0  0  0  0  0
  143.7790  140.6840  148.9350 H   0  0  0  0  0  0  0  0  0  0  0  0
  1 17  1  0  0  0  0
  1  3  1  0  0  0  0
  2  6  1  0  0  0  0
  3  2  1  0  0  0  0
  4  3  2  0  0  0  0
  5  2  1  0  0  0  0
  6 10  1  0  0  0  0
  7  8  1  0  0  0  0
  7 14  1  0  0  0  0
  9  8  2  0  0  0  0
 10  9  1  0  0  0  0
 11 10  2  0  0  0  0
 11 12  1  0  0  0  0
 12  7  2  0  0  0  0
 14 13  1  0  0  0  0
 15 12  1  0  0  0  0
 16 15  1  0  0  0  0
 18 17  1  0  0  0  0
 18 20  1  0  0  0  0
 19 18  2  0  0  0  0
 20 21  2  0  0  0  0
 20 29  1  0  0  0  0
 21 22  1  0  0  0  0
 22 23  2  0  0  0  0
 22 27  1  0  0  0  0
 23 24  1  0  0  0  0
 24 25  2  0  0  0  0
 26 25  1  0  0  0  0
 27 26  2  0  0  0  0
 28 27  1  0  0  0  0
 29 28  2  0  0  0  0
 30 29  1  0  0  0  0
 31 30  1  0  0  0  0
M  END
>  <MODEL>
4

>  <REMARK>
 VINA RESULT:    -7.163      2.554      5.432
 INTER + INTRA:         -12.854
 INTER:                 -11.001
 INTRA:                  -1.853
 UNBOUND:                -2.132
  Name = CHEMBL1893786
  11 active torsions:
  status: ('A' for Active; 'I' for Inactive)
    1  A    between atoms: C_1  and  O_2
    2  A    between atoms: O_2  and  C_3
    3  A    between atoms: C_6  and  C_7
    4  A    between atoms: C_7  and  N_8
    5  A    between atoms: C_9  and  C_11
    6  A    between atoms: C_11  and  O_12
    7  A    between atoms: O_12  and  C_13
    8  A    between atoms: C_13  and  C_15
    9  A    between atoms: C_24  and  O_25
   10  A    between atoms: C_27  and  O_28
   11  A    between atoms: O_28  and  C_29
                            x       y       z     vdW  Elec       q    Type
                         _______ _______ _______ _____ _____    ______ ____

>  <TORSDO>
F 9

>  <SCORE>
-7.163

>  <RMSD_LB>
2.554

>  <RMSD_UB>
5.432

$$$$
CHEMBL1893786
 OpenBabel10172500393D

 31 33  0  0  0  0  0  0  0  0999 V2000
  136.2060  136.2900  151.0810 C   0  0  0  0  0  2  0  0  0  0  0  0
  135.5380  134.8700  152.9510 N   0  0  0  0  0  0  0  0  0  0  0  0
  135.1510  135.8980  152.1160 C   0  0  0  0  0  0  0  0  0  0  0  0
  134.0340  136.4070  152.1390 O   0  0  0  0  0  0  0  0  0  0  0  0
  136.4310  134.4740  152.8300 H   0  0  0  0  0  0  0  0  0  0  0  0
  134.6860  134.3570  153.9940 C   0  0  0  0  0  2  0  0  0  0  0  0
  135.8740  135.7320  157.9370 C   0  0  0  0  0  0  0  0  0  0  0  0
  134.7580  134.9000  157.7700 C   0  0  0  0  0  3  0  0  0  0  0  0
  134.3710  134.4610  156.5000 C   0  0  0  0  0  3  0  0  0  0  0  0
  135.0790  134.8560  155.3600 C   0  0  0  0  0  0  0  0  0  0  0  0
  136.1890  135.6930  155.5270 C   0  0  0  0  0  3  0  0  0  0  0  0
  136.6010  136.1210  156.8000 C   0  0  0  0  0  0  0  0  0  0  0  0
  135.2780  136.1800  160.2000 C   0  0  0  0  0  1  0  0  0  0  0  0
  136.2380  136.2480  159.1520 O   0  0  0  0  0  0  0  0  0  0  0  0
  137.7030  136.9370  156.7620 O   0  0  0  0  0  0  0  0  0  0  0  0
  137.6720  138.0060  155.8220 C   0  0  0  0  0  1  0  0  0  0  0  0
  137.0900  137.3290  151.5090 O   0  0  0  0  0  0  0  0  0  0  0  0
  137.9840  137.7350  150.5830 C   0  0  0  0  0  0  0  0  0  0  0  0
  137.7240  138.1520  149.4590 O   0  0  0  0  0  0  0  0  0  0  0  0
  139.3630  137.4120  151.0300 C   0  0  0  0  0  0  0  0  0  0  0  0
  139.6810  137.7320  152.3520 C   0  0  0  0  0  3  0  0  0  0  0  0
  141.0160  137.7730  152.7610 C   0  0  0  0  0  0  0  0  0  0  0  0
  141.3470  138.1920  154.0520 C   0  0  0  0  0  3  0  0  0  0  0  0
  142.6280  138.6600  154.3200 C   0  0  0  0  0  3  0  0  0  0  0  0
  143.6270  138.5200  153.3610 C   0  0  0  0  0  3  0  0  0  0  0  0
  143.3600  137.8510  152.1640 C   0  0  0  0  0  3  0  0  0  0  0  0
  142.0410  137.5050  151.8240 C   0  0  0  0  0  0  0  0  0  0  0  0
  141.6910  136.9730  150.5690 C   0  0  0  0  0  3  0  0  0  0  0  0
  140.3450  136.9360  150.1680 C   0  0  0  0  0  0  0  0  0  0  0  0
  140.0170  136.4380  148.9420 O   0  0  0  0  0  0  0  0  0  0  0  0
  139.9170  137.0180  148.2130 H   0  0  0  0  0  0  0  0  0  0  0  0
  1 17  1  0  0  0  0
  1  3  1  0  0  0  0
  2  6  1  0  0  0  0
  3  4  2  0  0  0  0
  3  2  1  0  0  0  0
  5  2  1  0  0  0  0
  6 10  1  0  0  0  0
  7 14  1  0  0  0  0
  8  7  1  0  0  0  0
  9  8  2  0  0  0  0
 10 11  2  0  0  0  0
 10  9  1  0  0  0  0
 11 12  1  0  0  0  0
 12  7  2  0  0  0  0
 14 13  1  0  0  0  0
 15 12  1  0  0  0  0
 16 15  1  0  0  0  0
 18 20  1  0  0  0  0
 18 17  1  0  0  0  0
 19 18  2  0  0  0  0
 20 21  1  0  0  0  0
 21 22  2  0  0  0  0
 22 23  1  0  0  0  0
 23 24  2  0  0  0  0
 25 24  1  0  0  0  0
 26 25  2  0  0  0  0
 27 26  1  0  0  0  0
 27 22  1  0  0  0  0
 28 27  2  0  0  0  0
 29 28  1  0  0  0  0
 29 20  2  0  0  0  0
 30 29  1  0  0  0  0
 31 30  1  0  0  0  0
M  END
>  <MODEL>
5

>  <REMARK>
 VINA RESULT:    -7.027      7.927     11.003
 INTER + INTRA:         -12.650
 INTER:                 -11.498
 INTRA:                  -1.152
 UNBOUND:                -2.132
  Name = CHEMBL1893786
  11 active torsions:
  status: ('A' for Active; 'I' for Inactive)
    1  A    between atoms: C_1  and  O_2
    2  A    between atoms: O_2  and  C_3
    3  A    between atoms: C_6  and  C_7
    4  A    between atoms: C_7  and  N_8
    5  A    between atoms: C_9  and  C_11
    6  A    between atoms: C_11  and  O_12
    7  A    between atoms: O_12  and  C_13
    8  A    between atoms: C_13  and  C_15
    9  A    between atoms: C_24  and  O_25
   10  A    between atoms: C_27  and  O_28
   11  A    between atoms: O_28  and  C_29
                            x       y       z     vdW  Elec       q    Type
                         _______ _______ _______ _____ _____    ______ ____

>  <TORSDO>
F 9

>  <SCORE>
-7.027

>  <RMSD_LB>
7.927

>  <RMSD_UB>
11.003

$$$$
CHEMBL1893786
 OpenBabel10172500393D

 31 33  0  0  0  0  0  0  0  0999 V2000
  135.6840  134.1550  149.1720 C   0  0  0  0  0  2  0  0  0  0  0  0
  135.9740  135.2280  151.3450 N   0  0  0  0  0  0  0  0  0  0  0  0
  136.0110  135.4130  149.9790 C   0  0  0  0  0  0  0  0  0  0  0  0
  136.2090  136.5000  149.4450 O   0  0  0  0  0  0  0  0  0  0  0  0
  135.7490  134.3360  151.6960 H   0  0  0  0  0  0  0  0  0  0  0  0
  136.2540  136.2900  152.2780 C   0  0  0  0  0  2  0  0  0  0  0  0
  135.5110  135.0950  156.3850 C   0  0  0  0  0  0  0  0  0  0  0  0
  134.7180  134.6060  155.3380 C   0  0  0  0  0  3  0  0  0  0  0  0
  134.9520  134.9950  154.0150 C   0  0  0  0  0  3  0  0  0  0  0  0
  135.9760  135.8960  153.7050 C   0  0  0  0  0  0  0  0  0  0  0  0
  136.7630  136.3900  154.7530 C   0  0  0  0  0  3  0  0  0  0  0  0
  136.5510  135.9890  156.0820 C   0  0  0  0  0  0  0  0  0  0  0  0
  133.9020  134.7290  158.1040 C   0  0  0  0  0  1  0  0  0  0  0  0
  135.2650  134.8020  157.7000 O   0  0  0  0  0  0  0  0  0  0  0  0
  137.4170  136.5810  156.9670 O   0  0  0  0  0  0  0  0  0  0  0  0
  137.8700  137.8890  156.6360 C   0  0  0  0  0  1  0  0  0  0  0  0
  134.8490  134.3890  148.0350 O   0  0  0  0  0  0  0  0  0  0  0  0
  134.4790  133.2800  147.3610 C   0  0  0  0  0  0  0  0  0  0  0  0
  133.5220  132.5580  147.6230 O   0  0  0  0  0  0  0  0  0  0  0  0
  135.5180  132.9180  146.3640 C   0  0  0  0  0  0  0  0  0  0  0  0
  135.8650  133.9050  145.4380 C   0  0  0  0  0  3  0  0  0  0  0  0
  136.5720  133.5630  144.2830 C   0  0  0  0  0  0  0  0  0  0  0  0
  136.8310  134.5260  143.3040 C   0  0  0  0  0  3  0  0  0  0  0  0
  137.1150  134.1280  142.0030 C   0  0  0  0  0  3  0  0  0  0  0  0
  137.3380  132.7830  141.7260 C   0  0  0  0  0  3  0  0  0  0  0  0
  137.3450  131.8470  142.7630 C   0  0  0  0  0  3  0  0  0  0  0  0
  136.9200  132.2120  144.0510 C   0  0  0  0  0  0  0  0  0  0  0  0
  136.7570  131.2820  145.0940 C   0  0  0  0  0  3  0  0  0  0  0  0
  136.0450  131.6350  146.2520 C   0  0  0  0  0  0  0  0  0  0  0  0
  135.8740  130.7200  147.2480 O   0  0  0  0  0  0  0  0  0  0  0  0
  136.2460  130.8740  148.0940 H   0  0  0  0  0  0  0  0  0  0  0  0
  1  3  1  0  0  0  0
  2  5  1  0  0  0  0
  2  6  1  0  0  0  0
  3  2  1  0  0  0  0
  4  3  2  0  0  0  0
  6 10  1  0  0  0  0
  7 14  1  0  0  0  0
  8  7  2  0  0  0  0
  9  8  1  0  0  0  0
 10  9  2  0  0  0  0
 10 11  1  0  0  0  0
 11 12  2  0  0  0  0
 12  7  1  0  0  0  0
 12 15  1  0  0  0  0
 14 13  1  0  0  0  0
 16 15  1  0  0  0  0
 17  1  1  0  0  0  0
 18 19  2  0  0  0  0
 18 17  1  0  0  0  0
 20 18  1  0  0  0  0
 21 20  2  0  0  0  0
 22 21  1  0  0  0  0
 23 22  2  0  0  0  0
 24 23  1  0  0  0  0
 25 24  2  0  0  0  0
 25 26  1  0  0  0  0
 26 27  2  0  0  0  0
 27 22  1  0  0  0  0
 27 28  1  0  0  0  0
 28 29  2  0  0  0  0
 29 20  1  0  0  0  0
 29 30  1  0  0  0  0
 30 31  1  0  0  0  0
M  END
>  <MODEL>
6

>  <REMARK>
 VINA RESULT:    -6.909     10.311     14.168
 INTER + INTRA:         -12.474
 INTER:                 -11.615
 INTRA:                  -0.859
 UNBOUND:                -2.132
  Name = CHEMBL1893786
  11 active torsions:
  status: ('A' for Active; 'I' for Inactive)
    1  A    between atoms: C_1  and  O_2
    2  A    between atoms: O_2  and  C_3
    3  A    between atoms: C_6  and  C_7
    4  A    between atoms: C_7  and  N_8
    5  A    between atoms: C_9  and  C_11
    6  A    between atoms: C_11  and  O_12
    7  A    between atoms: O_12  and  C_13
    8  A    between atoms: C_13  and  C_15
    9  A    between atoms: C_24  and  O_25
   10  A    between atoms: C_27  and  O_28
   11  A    between atoms: O_28  and  C_29
                            x       y       z     vdW  Elec       q    Type
                         _______ _______ _______ _____ _____    ______ ____

>  <TORSDO>
F 9

>  <SCORE>
-6.909

>  <RMSD_LB>
10.311

>  <RMSD_UB>
14.168

$$$$
CHEMBL1893786
 OpenBabel10172500393D

 31 33  0  0  0  0  0  0  0  0999 V2000
  138.5790  135.9350  147.6660 C   0  0  0  0  0  2  0  0  0  0  0  0
  138.3200  136.6390  149.9880 N   0  0  0  0  0  0  0  0  0  0  0  0
  138.4400  137.0690  148.6840 C   0  0  0  0  0  0  0  0  0  0  0  0
  138.3630  138.2460  148.3460 O   0  0  0  0  0  0  0  0  0  0  0  0
  138.3320  135.6720  150.1710 H   0  0  0  0  0  0  0  0  0  0  0  0
  138.1810  137.5520  151.0950 C   0  0  0  0  0  2  0  0  0  0  0  0
  141.8160  137.9750  153.4290 C   0  0  0  0  0  0  0  0  0  0  0  0
  141.8620  137.5420  152.0970 C   0  0  0  0  0  3  0  0  0  0  0  0
  140.6910  137.3990  151.3460 C   0  0  0  0  0  3  0  0  0  0  0  0
  139.4410  137.6700  151.9110 C   0  0  0  0  0  0  0  0  0  0  0  0
  139.3960  138.0970  153.2450 C   0  0  0  0  0  3  0  0  0  0  0  0
  140.5660  138.2650  154.0020 C   0  0  0  0  0  0  0  0  0  0  0  0
  143.6390  139.2840  154.2290 C   0  0  0  0  0  1  0  0  0  0  0  0
  142.9290  138.0510  154.2230 O   0  0  0  0  0  0  0  0  0  0  0  0
  140.3200  138.6840  155.2850 O   0  0  0  0  0  0  0  0  0  0  0  0
  139.9860  137.6750  156.2310 C   0  0  0  0  0  1  0  0  0  0  0  0
  138.0180  134.6920  148.0930 O   0  0  0  0  0  0  0  0  0  0  0  0
  137.2710  134.0550  147.1670 C   0  0  0  0  0  0  0  0  0  0  0  0
  137.6200  133.7660  146.0270 O   0  0  0  0  0  0  0  0  0  0  0  0
  135.8690  133.9300  147.6410 C   0  0  0  0  0  0  0  0  0  0  0  0
  135.2880  135.0810  148.1800 C   0  0  0  0  0  3  0  0  0  0  0  0
  134.1190  134.9860  148.9390 C   0  0  0  0  0  0  0  0  0  0  0  0
  133.5910  136.1170  149.5660 C   0  0  0  0  0  3  0  0  0  0  0  0
  132.7330  135.9690  150.6500 C   0  0  0  0  0  3  0  0  0  0  0  0
  132.2460  134.7070  150.9760 C   0  0  0  0  0  3  0  0  0  0  0  0
  132.5630  133.6060  150.1760 C   0  0  0  0  0  3  0  0  0  0  0  0
  133.5390  133.7170  149.1710 C   0  0  0  0  0  0  0  0  0  0  0  0
  134.0120  132.6120  148.4400 C   0  0  0  0  0  3  0  0  0  0  0  0
  135.1870  132.7180  147.6790 C   0  0  0  0  0  0  0  0  0  0  0  0
  135.6490  131.6350  146.9910 O   0  0  0  0  0  0  0  0  0  0  0  0
  135.3950  130.7720  147.2510 H   0  0  0  0  0  0  0  0  0  0  0  0
  1 17  1  0  0  0  0
  1  3  1  0  0  0  0
  2  5  1  0  0  0  0
  2  6  1  0  0  0  0
  3  2  1  0  0  0  0
  4  3  2  0  0  0  0
  6 10  1  0  0  0  0
  7 12  1  0  0  0  0
  7 14  1  0  0  0  0
  8  7  2  0  0  0  0
  9 10  2  0  0  0  0
  9  8  1  0  0  0  0
 10 11  1  0  0  0  0
 11 12  2  0  0  0  0
 12 15  1  0  0  0  0
 14 13  1  0  0  0  0
 15 16  1  0  0  0  0
 18 20  1  0  0  0  0
 18 17  1  0  0  0  0
 19 18  2  0  0  0  0
 20 29  2  0  0  0  0
 20 21  1  0  0  0  0
 21 22  2  0  0  0  0
 22 27  1  0  0  0  0
 22 23  1  0  0  0  0
 23 24  2  0  0  0  0
 24 25  1  0  0  0  0
 26 25  2  0  0  0  0
 27 26  1  0  0  0  0
 28 27  2  0  0  0  0
 29 28  1  0  0  0  0
 30 31  1  0  0  0  0
 30 29  1  0  0  0  0
M  END
>  <MODEL>
7

>  <REMARK>
 VINA RESULT:    -6.737      7.772     11.969
 INTER + INTRA:         -12.216
 INTER:                 -11.272
 INTRA:                  -0.944
 UNBOUND:                -2.132
  Name = CHEMBL1893786
  11 active torsions:
  status: ('A' for Active; 'I' for Inactive)
    1  A    between atoms: C_1  and  O_2
    2  A    between atoms: O_2  and  C_3
    3  A    between atoms: C_6  and  C_7
    4  A    between atoms: C_7  and  N_8
    5  A    between atoms: C_9  and  C_11
    6  A    between atoms: C_11  and  O_12
    7  A    between atoms: O_12  and  C_13
    8  A    between atoms: C_13  and  C_15
    9  A    between atoms: C_24  and  O_25
   10  A    between atoms: C_27  and  O_28
   11  A    between atoms: O_28  and  C_29
                            x       y       z     vdW  Elec       q    Type
                         _______ _______ _______ _____ _____    ______ ____

>  <TORSDO>
F 9

>  <SCORE>
-6.737

>  <RMSD_LB>
7.772

>  <RMSD_UB>
11.969

$$$$
CHEMBL1893786
 OpenBabel10172500393D

 31 33  0  0  0  0  0  0  0  0999 V2000
  145.6340  140.4960  152.1220 C   0  0  0  0  0  2  0  0  0  0  0  0
  144.3860  139.5000  150.2770 N   0  0  0  0  0  0  0  0  0  0  0  0
  145.1040  140.6020  150.6920 C   0  0  0  0  0  0  0  0  0  0  0  0
  145.3690  141.5540  149.9640 O   0  0  0  0  0  0  0  0  0  0  0  0
  144.2670  138.7490  150.9020 H   0  0  0  0  0  0  0  0  0  0  0  0
  143.8020  139.4060  148.9620 C   0  0  0  0  0  2  0  0  0  0  0  0
  139.4610  139.3310  148.9990 C   0  0  0  0  0  0  0  0  0  0  0  0
  140.1720  140.2700  149.7590 C   0  0  0  0  0  3  0  0  0  0  0  0
  141.5700  140.2910  149.7530 C   0  0  0  0  0  3  0  0  0  0  0  0
  142.2960  139.3640  149.0000 C   0  0  0  0  0  0  0  0  0  0  0  0
  141.5860  138.4210  148.2460 C   0  0  0  0  0  3  0  0  0  0  0  0
  140.1820  138.4050  148.2270 C   0  0  0  0  0  0  0  0  0  0  0  0
  137.3490  140.4320  148.9560 C   0  0  0  0  0  1  0  0  0  0  0  0
  138.0970  139.2240  149.0390 O   0  0  0  0  0  0  0  0  0  0  0  0
  139.6670  137.4080  147.4360 O   0  0  0  0  0  0  0  0  0  0  0  0
  139.9570  137.4850  146.0450 C   0  0  0  0  0  1  0  0  0  0  0  0
  145.4940  139.1980  152.7050 O   0  0  0  0  0  0  0  0  0  0  0  0
  145.2170  139.1920  154.0260 C   0  0  0  0  0  0  0  0  0  0  0  0
  146.0330  139.2790  154.9380 O   0  0  0  0  0  0  0  0  0  0  0  0
  143.7890  138.8490  154.2450 C   0  0  0  0  0  0  0  0  0  0  0  0
  143.1690  138.0930  153.2480 C   0  0  0  0  0  3  0  0  0  0  0  0
  141.7760  138.0030  153.2010 C   0  0  0  0  0  0  0  0  0  0  0  0
  141.1470  137.3350  152.1480 C   0  0  0  0  0  3  0  0  0  0  0  0
  139.8180  137.6140  151.8480 C   0  0  0  0  0  3  0  0  0  0  0  0
  139.0660  138.4010  152.7150 C   0  0  0  0  0  3  0  0  0  0  0  0
  139.6240  138.8490  153.9150 C   0  0  0  0  0  3  0  0  0  0  0  0
  140.9990  138.6960  154.1590 C   0  0  0  0  0  0  0  0  0  0  0  0
  141.6450  139.2620  155.2730 C   0  0  0  0  0  3  0  0  0  0  0  0
  143.0460  139.3460  155.3110 C   0  0  0  0  0  0  0  0  0  0  0  0
  143.6620  139.9160  156.3860 O   0  0  0  0  0  0  0  0  0  0  0  0
  144.3080  139.4360  156.8640 H   0  0  0  0  0  0  0  0  0  0  0  0
  1 17  1  0  0  0  0
  2  3  1  0  0  0  0
  2  5  1  0  0  0  0
  3  1  1  0  0  0  0
  4  3  2  0  0  0  0
  6 10  1  0  0  0  0
  6  2  1  0  0  0  0
  7 14  1  0  0  0  0
  7  8  1  0  0  0  0
  9  8  2  0  0  0  0
 10  9  1  0  0  0  0
 11 10  2  0  0  0  0
 12 11  1  0  0  0  0
 12  7  2  0  0  0  0
 13 14  1  0  0  0  0
 15 12  1  0  0  0  0
 16 15  1  0  0  0  0
 17 18  1  0  0  0  0
 18 20  1  0  0  0  0
 18 19  2  0  0  0  0
 20 29  1  0  0  0  0
 21 20  2  0  0  0  0
 22 21  1  0  0  0  0
 22 27  1  0  0  0  0
 23 22  2  0  0  0  0
 24 23  1  0  0  0  0
 24 25  2  0  0  0  0
 25 26  1  0  0  0  0
 26 27  2  0  0  0  0
 27 28  1  0  0  0  0
 28 29  2  0  0  0  0
 29 30  1  0  0  0  0
 30 31  1  0  0  0  0
M  END
>  <MODEL>
8

>  <REMARK>
 VINA RESULT:    -6.632      3.491      5.808
 INTER + INTRA:         -12.060
 INTER:                  -9.928
 INTRA:                  -2.132
 UNBOUND:                -2.132
  Name = CHEMBL1893786
  11 active torsions:
  status: ('A' for Active; 'I' for Inactive)
    1  A    between atoms: C_1  and  O_2
    2  A    between atoms: O_2  and  C_3
    3  A    between atoms: C_6  and  C_7
    4  A    between atoms: C_7  and  N_8
    5  A    between atoms: C_9  and  C_11
    6  A    between atoms: C_11  and  O_12
    7  A    between atoms: O_12  and  C_13
    8  A    between atoms: C_13  and  C_15
    9  A    between atoms: C_24  and  O_25
   10  A    between atoms: C_27  and  O_28
   11  A    between atoms: O_28  and  C_29
                            x       y       z     vdW  Elec       q    Type
                         _______ _______ _______ _____ _____    ______ ____

>  <TORSDO>
F 9

>  <SCORE>
-6.632

>  <RMSD_LB>
3.491

>  <RMSD_UB>
5.808

$$$$
CHEMBL1893786
 OpenBabel10172500393D

 31 33  0  0  0  0  0  0  0  0999 V2000
  135.1920  134.6740  145.6940 C   0  0  0  0  0  2  0  0  0  0  0  0
  136.9850  134.4490  147.3340 N   0  0  0  0  0  0  0  0  0  0  0  0
  136.5420  134.0710  146.0840 C   0  0  0  0  0  0  0  0  0  0  0  0
  137.1980  133.3780  145.3120 O   0  0  0  0  0  0  0  0  0  0  0  0
  136.4270  135.0570  147.8700 H   0  0  0  0  0  0  0  0  0  0  0  0
  138.2340  133.9870  147.8850 C   0  0  0  0  0  2  0  0  0  0  0  0
  140.4570  137.2120  149.7580 C   0  0  0  0  0  0  0  0  0  0  0  0
  141.0970  136.2880  148.9210 C   0  0  0  0  0  3  0  0  0  0  0  0
  140.3830  135.2440  148.3220 C   0  0  0  0  0  3  0  0  0  0  0  0
  139.0140  135.0880  148.5570 C   0  0  0  0  0  0  0  0  0  0  0  0
  138.3770  136.0080  149.3990 C   0  0  0  0  0  3  0  0  0  0  0  0
  139.0790  137.0720  149.9880 C   0  0  0  0  0  0  0  0  0  0  0  0
  141.2500  139.4590  149.7770 C   0  0  0  0  0  1  0  0  0  0  0  0
  141.1330  138.1980  150.4260 O   0  0  0  0  0  0  0  0  0  0  0  0
  138.2870  137.8630  150.7820 O   0  0  0  0  0  0  0  0  0  0  0  0
  138.5140  137.7870  152.1850 C   0  0  0  0  0  1  0  0  0  0  0  0
  134.8980  135.9170  146.3360 O   0  0  0  0  0  0  0  0  0  0  0  0
  133.6280  136.0470  146.7740 C   0  0  0  0  0  0  0  0  0  0  0  0
  132.7290  136.6710  146.2190 O   0  0  0  0  0  0  0  0  0  0  0  0
  133.5050  135.5000  148.1490 C   0  0  0  0  0  0  0  0  0  0  0  0
  134.2230  136.1600  149.1490 C   0  0  0  0  0  3  0  0  0  0  0  0
  134.4340  135.5420  150.3840 C   0  0  0  0  0  0  0  0  0  0  0  0
  135.2380  136.1510  151.3500 C   0  0  0  0  0  3  0  0  0  0  0  0
  135.8090  135.3830  152.3580 C   0  0  0  0  0  3  0  0  0  0  0  0
  135.4190  134.0570  152.5190 C   0  0  0  0  0  3  0  0  0  0  0  0
  134.4090  133.5230  151.7170 C   0  0  0  0  0  3  0  0  0  0  0  0
  133.9290  134.2400  150.6070 C   0  0  0  0  0  0  0  0  0  0  0  0
  133.0280  133.6930  149.6760 C   0  0  0  0  0  3  0  0  0  0  0  0
  132.8230  134.3220  148.4370 C   0  0  0  0  0  0  0  0  0  0  0  0
  131.9640  133.7730  147.5320 O   0  0  0  0  0  0  0  0  0  0  0  0
  131.2780  133.2050  147.8220 H   0  0  0  0  0  0  0  0  0  0  0  0
  1  3  1  0  0  0  0
  1 17  1  0  0  0  0
  2  5  1  0  0  0  0
  2  6  1  0  0  0  0
  3  2  1  0  0  0  0
  4  3  2  0  0  0  0
  6 10  1  0  0  0  0
  7 12  1  0  0  0  0
  7 14  1  0  0  0  0
  8  7  2  0  0  0  0
  9 10  2  0  0  0  0
  9  8  1  0  0  0  0
 10 11  1  0  0  0  0
 11 12  2  0  0  0  0
 12 15  1  0  0  0  0
 13 14  1  0  0  0  0
 15 16  1  0  0  0  0
 17 18  1  0  0  0  0
 18 20  1  0  0  0  0
 19 18  2  0  0  0  0
 20 29  2  0  0  0  0
 20 21  1  0  0  0  0
 21 22  2  0  0  0  0
 22 27  1  0  0  0  0
 22 23  1  0  0  0  0
 23 24  2  0  0  0  0
 24 25  1  0  0  0  0
 26 25  2  0  0  0  0
 27 26  1  0  0  0  0
 28 27  2  0  0  0  0
 29 28  1  0  0  0  0
 30 31  1  0  0  0  0
 30 29  1  0  0  0  0
M  END
>  <MODEL>
9

>  <REMARK>
 VINA RESULT:    -6.470      8.432     12.344
 INTER + INTRA:         -11.817
 INTER:                 -10.141
 INTRA:                  -1.676
 UNBOUND:                -2.132
  Name = CHEMBL1893786
  11 active torsions:
  status: ('A' for Active; 'I' for Inactive)
    1  A    between atoms: C_1  and  O_2
    2  A    between atoms: O_2  and  C_3
    3  A    between atoms: C_6  and  C_7
    4  A    between atoms: C_7  and  N_8
    5  A    between atoms: C_9  and  C_11
    6  A    between atoms: C_11  and  O_12
    7  A    between atoms: O_12  and  C_13
    8  A    between atoms: C_13  and  C_15
    9  A    between atoms: C_24  and  O_25
   10  A    between atoms: C_27  and  O_28
   11  A    between atoms: O_28  and  C_29
                            x       y       z     vdW  Elec       q    Type
                         _______ _______ _______ _____ _____    ______ ____

>  <TORSDO>
F 9

>  <SCORE>
-6.470

>  <RMSD_LB>
8.432

>  <RMSD_UB>
12.344

$$$$
