CHEMBL316364
 OpenBabel10172500123D

 25 25  0  0  0  0  0  0  0  0999 V2000
  134.7570  135.6350  154.0690 C   0  0  0  0  0  0  0  0  0  0  0  0
  133.9950  136.5810  154.2570 O   0  0  0  0  0  0  0  0  0  0  0  0
  136.0630  135.6300  154.5000 N   0  0  0  0  0  0  0  0  0  0  0  0
  136.6210  134.8350  154.3430 H   0  0  0  0  0  0  0  0  0  0  0  0
  134.3390  134.3630  153.3570 C   0  0  0  0  0  2  0  0  0  0  0  0
  134.3900  134.5600  151.8420 C   0  0  0  0  0  2  0  0  0  0  0  0
  135.7030  134.0840  151.2300 C   0  0  0  0  0  2  0  0  0  0  0  0
  136.3980  135.2360  150.5020 C   0  0  0  0  0  2  0  0  0  0  0  0
  135.3830  136.2060  149.9060 C   0  0  0  0  0  2  0  0  0  0  0  0
  135.5510  136.3140  148.3910 C   0  0  0  0  0  2  0  0  0  0  0  0
  134.7360  135.2400  147.6740 C   0  0  0  0  0  2  0  0  0  0  0  0
  133.3930  135.0160  148.3670 C   0  0  0  0  0  2  0  0  0  0  0  0
  133.8910  132.5600  148.5640 C   0  0  0  0  0  1  0  0  0  0  0  0
  132.8750  133.6010  148.1230 C   0  0  0  0  0  2  0  0  0  0  0  0
  136.6280  136.7730  155.1810 C   0  0  0  0  0  2  0  0  0  0  0  0
  137.6900  137.4580  154.3580 C   0  0  0  0  0  0  0  0  0  0  0  0
  137.7160  137.3070  152.9670 C   0  0  0  0  0  3  0  0  0  0  0  0
  138.6840  137.9560  152.2000 C   0  0  0  0  0  3  0  0  0  0  0  0
  139.6470  138.7580  152.8170 C   0  0  0  0  0  0  0  0  0  0  0  0
  139.6560  138.9090  154.2080 C   0  0  0  0  0  0  0  0  0  0  0  0
  138.6740  138.2500  154.9650 C   0  0  0  0  0  3  0  0  0  0  0  0
  140.5670  139.3840  152.0200 O   0  0  0  0  0  0  0  0  0  0  0  0
  140.5370  140.3150  151.9100 H   0  0  0  0  0  0  0  0  0  0  0  0
  140.5190  139.6430  154.9790 O   0  0  0  0  0  0  0  0  0  0  0  0
  141.8250  139.1280  155.1910 C   0  0  0  0  0  1  0  0  0  0  0  0
  1  2  2  0  0  0  0
  1  3  1  0  0  0  0
  3 15  1  0  0  0  0
  4  3  1  0  0  0  0
  5  1  1  0  0  0  0
  6  5  1  0  0  0  0
  7  6  1  0  0  0  0
  8  7  1  0  0  0  0
  9  8  1  0  0  0  0
 10  9  1  0  0  0  0
 11 12  1  0  0  0  0
 11 10  1  0  0  0  0
 14 12  1  0  0  0  0
 14 13  1  0  0  0  0
 16 21  1  0  0  0  0
 16 15  1  0  0  0  0
 17 16  2  0  0  0  0
 18 19  2  0  0  0  0
 18 17  1  0  0  0  0
 19 20  1  0  0  0  0
 20 21  2  0  0  0  0
 20 24  1  0  0  0  0
 22 19  1  0  0  0  0
 23 22  1  0  0  0  0
 24 25  1  0  0  0  0
M  END
>  <MODEL>
1

>  <REMARK>
 VINA RESULT:    -5.588      0.000      0.000
 INTER + INTRA:         -12.018
 INTER:                 -10.171
 INTRA:                  -1.848
 UNBOUND:                -2.346
  Name = CHEMBL316364
  15 active torsions:
  status: ('A' for Active; 'I' for Inactive)
    1  A    between atoms: C_1  and  C_2
    2  A    between atoms: C_2  and  C_3
    3  A    between atoms: C_3  and  C_4
    4  A    between atoms: C_4  and  C_5
    5  A    between atoms: C_5  and  C_6
    6  A    between atoms: C_6  and  C_7
    7  A    between atoms: C_7  and  C_8
    8  A    between atoms: C_8  and  C_9
    9  A    between atoms: C_9  and  C_10
   10  A    between atoms: C_10  and  C_11
   11  A    between atoms: N_13  and  C_14
   12  A    between atoms: C_14  and  C_15
   13  A    between atoms: C_18  and  O_19
   14  A    between atoms: C_20  and  O_21
   15  A    between atoms: O_21  and  C_22
                            x       y       z     vdW  Elec       q    Type
                         _______ _______ _______ _____ _____    ______ ____

>  <TORSDO>
F 13

>  <SCORE>
-5.588

>  <RMSD_LB>
0.000

>  <RMSD_UB>
0.000

$$$$
CHEMBL316364
 OpenBabel10172500123D

 25 25  0  0  0  0  0  0  0  0999 V2000
  137.0400  136.9380  150.4480 C   0  0  0  0  0  0  0  0  0  0  0  0
  137.7900  137.9080  150.5420 O   0  0  0  0  0  0  0  0  0  0  0  0
  136.5620  136.2550  151.5420 N   0  0  0  0  0  0  0  0  0  0  0  0
  135.9450  135.5000  151.4100 H   0  0  0  0  0  0  0  0  0  0  0  0
  136.5450  136.3970  149.1210 C   0  0  0  0  0  2  0  0  0  0  0  0
  135.3050  137.1640  148.6630 C   0  0  0  0  0  2  0  0  0  0  0  0
  134.3950  136.3310  147.7680 C   0  0  0  0  0  2  0  0  0  0  0  0
  132.9780  136.2910  148.3440 C   0  0  0  0  0  2  0  0  0  0  0  0
  132.9430  136.8400  149.7670 C   0  0  0  0  0  2  0  0  0  0  0  0
  132.7070  135.7220  150.7810 C   0  0  0  0  0  2  0  0  0  0  0  0
  132.5990  134.3670  150.0850 C   0  0  0  0  0  2  0  0  0  0  0  0
  133.6370  133.3880  150.6270 C   0  0  0  0  0  2  0  0  0  0  0  0
  133.6010  132.7460  148.1970 C   0  0  0  0  0  1  0  0  0  0  0  0
  134.3940  132.7010  149.4920 C   0  0  0  0  0  2  0  0  0  0  0  0
  136.9500  136.6290  152.8830 C   0  0  0  0  0  2  0  0  0  0  0  0
  136.1380  135.9120  153.9320 C   0  0  0  0  0  0  0  0  0  0  0  0
  135.2280  134.9150  153.5630 C   0  0  0  0  0  3  0  0  0  0  0  0
  134.4890  134.2340  154.5320 C   0  0  0  0  0  3  0  0  0  0  0  0
  134.6440  134.5500  155.8840 C   0  0  0  0  0  0  0  0  0  0  0  0
  135.5320  135.5570  156.2780 C   0  0  0  0  0  0  0  0  0  0  0  0
  136.2690  136.2320  155.2900 C   0  0  0  0  0  3  0  0  0  0  0  0
  133.9060  133.8450  156.7970 O   0  0  0  0  0  0  0  0  0  0  0  0
  133.2040  133.2950  156.5080 H   0  0  0  0  0  0  0  0  0  0  0  0
  135.8070  136.0030  157.5430 O   0  0  0  0  0  0  0  0  0  0  0  0
  136.6260  135.1910  158.3730 C   0  0  0  0  0  1  0  0  0  0  0  0
  1  2  2  0  0  0  0
  1  3  1  0  0  0  0
  3 15  1  0  0  0  0
  4  3  1  0  0  0  0
  5  1  1  0  0  0  0
  6  5  1  0  0  0  0
  7  8  1  0  0  0  0
  7  6  1  0  0  0  0
  8  9  1  0  0  0  0
  9 10  1  0  0  0  0
 11 12  1  0  0  0  0
 11 10  1  0  0  0  0
 13 14  1  0  0  0  0
 14 12  1  0  0  0  0
 15 16  1  0  0  0  0
 16 21  1  0  0  0  0
 17 16  2  0  0  0  0
 17 18  1  0  0  0  0
 18 19  2  0  0  0  0
 19 20  1  0  0  0  0
 19 22  1  0  0  0  0
 20 24  1  0  0  0  0
 21 20  2  0  0  0  0
 23 22  1  0  0  0  0
 24 25  1  0  0  0  0
M  END
>  <MODEL>
2

>  <REMARK>
 VINA RESULT:    -5.500      2.706      4.808
 INTER + INTRA:         -11.866
 INTER:                  -9.968
 INTRA:                  -1.899
 UNBOUND:                -2.346
  Name = CHEMBL316364
  15 active torsions:
  status: ('A' for Active; 'I' for Inactive)
    1  A    between atoms: C_1  and  C_2
    2  A    between atoms: C_2  and  C_3
    3  A    between atoms: C_3  and  C_4
    4  A    between atoms: C_4  and  C_5
    5  A    between atoms: C_5  and  C_6
    6  A    between atoms: C_6  and  C_7
    7  A    between atoms: C_7  and  C_8
    8  A    between atoms: C_8  and  C_9
    9  A    between atoms: C_9  and  C_10
   10  A    between atoms: C_10  and  C_11
   11  A    between atoms: N_13  and  C_14
   12  A    between atoms: C_14  and  C_15
   13  A    between atoms: C_18  and  O_19
   14  A    between atoms: C_20  and  O_21
   15  A    between atoms: O_21  and  C_22
                            x       y       z     vdW  Elec       q    Type
                         _______ _______ _______ _____ _____    ______ ____

>  <TORSDO>
F 13

>  <SCORE>
-5.500

>  <RMSD_LB>
2.706

>  <RMSD_UB>
4.808

$$$$
CHEMBL316364
 OpenBabel10172500123D

 25 25  0  0  0  0  0  0  0  0999 V2000
  146.4390  140.2130  154.0840 C   0  0  0  0  0  0  0  0  0  0  0  0
  147.0400  139.2000  154.4380 O   0  0  0  0  0  0  0  0  0  0  0  0
  145.0670  140.2920  154.0440 N   0  0  0  0  0  0  0  0  0  0  0  0
  144.6380  141.1360  153.7760 H   0  0  0  0  0  0  0  0  0  0  0  0
  147.1420  141.4910  153.6690 C   0  0  0  0  0  2  0  0  0  0  0  0
  146.2150  142.3520  152.8110 C   0  0  0  0  0  2  0  0  0  0  0  0
  146.6040  142.3480  151.3370 C   0  0  0  0  0  2  0  0  0  0  0  0
  145.4290  141.8750  150.4800 C   0  0  0  0  0  2  0  0  0  0  0  0
  145.8150  140.6710  149.6270 C   0  0  0  0  0  2  0  0  0  0  0  0
  147.0930  140.0150  150.1500 C   0  0  0  0  0  2  0  0  0  0  0  0
  146.7820  138.6900  150.8430 C   0  0  0  0  0  2  0  0  0  0  0  0
  145.5830  138.0010  150.1950 C   0  0  0  0  0  2  0  0  0  0  0  0
  145.8970  136.5980  152.2570 C   0  0  0  0  0  1  0  0  0  0  0  0
  145.2860  136.6620  150.8680 C   0  0  0  0  0  2  0  0  0  0  0  0
  144.2430  139.1560  154.3910 C   0  0  0  0  0  2  0  0  0  0  0  0
  143.1690  138.8970  153.3660 C   0  0  0  0  0  0  0  0  0  0  0  0
  142.1800  137.9350  153.6030 C   0  0  0  0  0  3  0  0  0  0  0  0
  141.1720  137.7080  152.6660 C   0  0  0  0  0  3  0  0  0  0  0  0
  141.1440  138.4350  151.4730 C   0  0  0  0  0  0  0  0  0  0  0  0
  142.1320  139.3880  151.2020 C   0  0  0  0  0  0  0  0  0  0  0  0
  143.1390  139.6060  152.1570 C   0  0  0  0  0  3  0  0  0  0  0  0
  140.1270  138.1840  150.5920 O   0  0  0  0  0  0  0  0  0  0  0  0
  139.7690  138.8810  150.0770 H   0  0  0  0  0  0  0  0  0  0  0  0
  142.2680  140.1820  150.0950 O   0  0  0  0  0  0  0  0  0  0  0  0
  142.5120  139.5500  148.8470 C   0  0  0  0  0  1  0  0  0  0  0  0
  1  2  2  0  0  0  0
  3  1  1  0  0  0  0
  3 15  1  0  0  0  0
  4  3  1  0  0  0  0
  5  1  1  0  0  0  0
  6  5  1  0  0  0  0
  7  6  1  0  0  0  0
  8  7  1  0  0  0  0
  9 10  1  0  0  0  0
  9  8  1  0  0  0  0
 10 11  1  0  0  0  0
 12 11  1  0  0  0  0
 12 14  1  0  0  0  0
 14 13  1  0  0  0  0
 16 17  1  0  0  0  0
 16 15  1  0  0  0  0
 18 17  2  0  0  0  0
 19 18  1  0  0  0  0
 20 19  2  0  0  0  0
 20 21  1  0  0  0  0
 21 16  2  0  0  0  0
 22 19  1  0  0  0  0
 23 22  1  0  0  0  0
 24 20  1  0  0  0  0
 25 24  1  0  0  0  0
M  END
>  <MODEL>
3

>  <REMARK>
 VINA RESULT:    -5.427      6.398     10.138
 INTER + INTRA:         -11.738
 INTER:                  -9.201
 INTRA:                  -2.538
 UNBOUND:                -2.346
  Name = CHEMBL316364
  15 active torsions:
  status: ('A' for Active; 'I' for Inactive)
    1  A    between atoms: C_1  and  C_2
    2  A    between atoms: C_2  and  C_3
    3  A    between atoms: C_3  and  C_4
    4  A    between atoms: C_4  and  C_5
    5  A    between atoms: C_5  and  C_6
    6  A    between atoms: C_6  and  C_7
    7  A    between atoms: C_7  and  C_8
    8  A    between atoms: C_8  and  C_9
    9  A    between atoms: C_9  and  C_10
   10  A    between atoms: C_10  and  C_11
   11  A    between atoms: N_13  and  C_14
   12  A    between atoms: C_14  and  C_15
   13  A    between atoms: C_18  and  O_19
   14  A    between atoms: C_20  and  O_21
   15  A    between atoms: O_21  and  C_22
                            x       y       z     vdW  Elec       q    Type
                         _______ _______ _______ _____ _____    ______ ____

>  <TORSDO>
F 13

>  <SCORE>
-5.427

>  <RMSD_LB>
6.398

>  <RMSD_UB>
10.138

$$$$
CHEMBL316364
 OpenBabel10172500123D

 25 25  0  0  0  0  0  0  0  0999 V2000
  134.6260  134.8940  153.9040 C   0  0  0  0  0  0  0  0  0  0  0  0
  133.9550  134.3970  154.8070 O   0  0  0  0  0  0  0  0  0  0  0  0
  135.7150  135.6990  154.1390 N   0  0  0  0  0  0  0  0  0  0  0  0
  136.2310  136.0510  153.3770 H   0  0  0  0  0  0  0  0  0  0  0  0
  134.3380  134.6620  152.4330 C   0  0  0  0  0  2  0  0  0  0  0  0
  135.2140  135.5680  151.5700 C   0  0  0  0  0  2  0  0  0  0  0  0
  136.1830  134.7860  150.6900 C   0  0  0  0  0  2  0  0  0  0  0  0
  136.1970  135.3640  149.2730 C   0  0  0  0  0  2  0  0  0  0  0  0
  135.3930  136.6580  149.1960 C   0  0  0  0  0  2  0  0  0  0  0  0
  134.3510  136.5900  148.0800 C   0  0  0  0  0  2  0  0  0  0  0  0
  133.0760  135.9050  148.5650 C   0  0  0  0  0  2  0  0  0  0  0  0
  132.9180  134.5260  147.9290 C   0  0  0  0  0  2  0  0  0  0  0  0
  134.0110  132.4560  148.8460 C   0  0  0  0  0  1  0  0  0  0  0  0
  132.8550  133.4310  148.9910 C   0  0  0  0  0  2  0  0  0  0  0  0
  136.1170  136.0370  155.4850 C   0  0  0  0  0  2  0  0  0  0  0  0
  137.4270  136.7830  155.5180 C   0  0  0  0  0  0  0  0  0  0  0  0
  138.2160  136.7790  156.6740 C   0  0  0  0  0  3  0  0  0  0  0  0
  139.4390  137.4500  156.7020 C   0  0  0  0  0  3  0  0  0  0  0  0
  139.8860  138.1440  155.5740 C   0  0  0  0  0  0  0  0  0  0  0  0
  139.1070  138.1800  154.4120 C   0  0  0  0  0  0  0  0  0  0  0  0
  137.8790  137.4980  154.4010 C   0  0  0  0  0  3  0  0  0  0  0  0
  141.0980  138.7750  155.6470 O   0  0  0  0  0  0  0  0  0  0  0  0
  141.2650  139.5320  155.1210 H   0  0  0  0  0  0  0  0  0  0  0  0
  139.3770  138.8080  153.2260 O   0  0  0  0  0  0  0  0  0  0  0  0
  139.9950  138.0500  152.1960 C   0  0  0  0  0  1  0  0  0  0  0  0
  1  3  1  0  0  0  0
  1  2  2  0  0  0  0
  3 15  1  0  0  0  0
  4  3  1  0  0  0  0
  5  1  1  0  0  0  0
  6  5  1  0  0  0  0
  7  6  1  0  0  0  0
  8  7  1  0  0  0  0
  9  8  1  0  0  0  0
 10 11  1  0  0  0  0
 10  9  1  0  0  0  0
 12 11  1  0  0  0  0
 12 14  1  0  0  0  0
 13 14  1  0  0  0  0
 15 16  1  0  0  0  0
 16 17  1  0  0  0  0
 17 18  2  0  0  0  0
 19 22  1  0  0  0  0
 19 18  1  0  0  0  0
 20 19  2  0  0  0  0
 21 20  1  0  0  0  0
 21 16  2  0  0  0  0
 23 22  1  0  0  0  0
 24 20  1  0  0  0  0
 25 24  1  0  0  0  0
M  END
>  <MODEL>
4

>  <REMARK>
 VINA RESULT:    -5.392      1.206      2.085
 INTER + INTRA:         -11.679
 INTER:                  -9.915
 INTRA:                  -1.763
 UNBOUND:                -2.346
  Name = CHEMBL316364
  15 active torsions:
  status: ('A' for Active; 'I' for Inactive)
    1  A    between atoms: C_1  and  C_2
    2  A    between atoms: C_2  and  C_3
    3  A    between atoms: C_3  and  C_4
    4  A    between atoms: C_4  and  C_5
    5  A    between atoms: C_5  and  C_6
    6  A    between atoms: C_6  and  C_7
    7  A    between atoms: C_7  and  C_8
    8  A    between atoms: C_8  and  C_9
    9  A    between atoms: C_9  and  C_10
   10  A    between atoms: C_10  and  C_11
   11  A    between atoms: N_13  and  C_14
   12  A    between atoms: C_14  and  C_15
   13  A    between atoms: C_18  and  O_19
   14  A    between atoms: C_20  and  O_21
   15  A    between atoms: O_21  and  C_22
                            x       y       z     vdW  Elec       q    Type
                         _______ _______ _______ _____ _____    ______ ____

>  <TORSDO>
F 13

>  <SCORE>
-5.392

>  <RMSD_LB>
1.206

>  <RMSD_UB>
2.085

$$$$
CHEMBL316364
 OpenBabel10172500123D

 25 25  0  0  0  0  0  0  0  0999 V2000
  146.6180  137.0550  149.0410 C   0  0  0  0  0  0  0  0  0  0  0  0
  147.7260  136.6120  149.3350 O   0  0  0  0  0  0  0  0  0  0  0  0
  145.5070  136.8730  149.8300 N   0  0  0  0  0  0  0  0  0  0  0  0
  144.6490  137.2720  149.5570 H   0  0  0  0  0  0  0  0  0  0  0  0
  146.3560  137.8660  147.7860 C   0  0  0  0  0  2  0  0  0  0  0  0
  146.9890  139.2520  147.9070 C   0  0  0  0  0  2  0  0  0  0  0  0
  145.9610  140.3480  148.1620 C   0  0  0  0  0  2  0  0  0  0  0  0
  145.5080  140.3210  149.6230 C   0  0  0  0  0  2  0  0  0  0  0  0
  145.5500  141.7150  150.2410 C   0  0  0  0  0  2  0  0  0  0  0  0
  146.9670  142.2850  150.2140 C   0  0  0  0  0  2  0  0  0  0  0  0
  147.5890  142.2660  151.6080 C   0  0  0  0  0  2  0  0  0  0  0  0
  146.5110  142.2580  152.6900 C   0  0  0  0  0  2  0  0  0  0  0  0
  148.5410  141.7980  154.0990 C   0  0  0  0  0  1  0  0  0  0  0  0
  147.0340  141.6440  153.9870 C   0  0  0  0  0  2  0  0  0  0  0  0
  145.5780  136.1080  151.0540 C   0  0  0  0  0  2  0  0  0  0  0  0
  145.4300  136.9760  152.2770 C   0  0  0  0  0  0  0  0  0  0  0  0
  144.2690  137.7310  152.4750 C   0  0  0  0  0  3  0  0  0  0  0  0
  144.1200  138.5190  153.6160 C   0  0  0  0  0  3  0  0  0  0  0  0
  145.1370  138.5710  154.5730 C   0  0  0  0  0  0  0  0  0  0  0  0
  146.3170  137.8420  154.3900 C   0  0  0  0  0  0  0  0  0  0  0  0
  146.4510  137.0520  153.2360 C   0  0  0  0  0  3  0  0  0  0  0  0
  144.9370  139.3490  155.6810 O   0  0  0  0  0  0  0  0  0  0  0  0
  144.0810  139.4180  156.0570 H   0  0  0  0  0  0  0  0  0  0  0  0
  147.4130  137.7760  155.2090 O   0  0  0  0  0  0  0  0  0  0  0  0
  148.6980  137.7900  154.6050 C   0  0  0  0  0  1  0  0  0  0  0  0
  1  2  2  0  0  0  0
  1  3  1  0  0  0  0
  3 15  1  0  0  0  0
  4  3  1  0  0  0  0
  5  6  1  0  0  0  0
  5  1  1  0  0  0  0
  6  7  1  0  0  0  0
  7  8  1  0  0  0  0
  8  9  1  0  0  0  0
 10  9  1  0  0  0  0
 10 11  1  0  0  0  0
 11 12  1  0  0  0  0
 12 14  1  0  0  0  0
 14 13  1  0  0  0  0
 15 16  1  0  0  0  0
 16 17  2  0  0  0  0
 16 21  1  0  0  0  0
 17 18  1  0  0  0  0
 18 19  2  0  0  0  0
 19 22  1  0  0  0  0
 20 19  1  0  0  0  0
 20 24  1  0  0  0  0
 21 20  2  0  0  0  0
 22 23  1  0  0  0  0
 25 24  1  0  0  0  0
M  END
>  <MODEL>
5

>  <REMARK>
 VINA RESULT:    -5.118      8.822     11.537
 INTER + INTRA:         -11.205
 INTER:                  -9.631
 INTRA:                  -1.573
 UNBOUND:                -2.346
  Name = CHEMBL316364
  15 active torsions:
  status: ('A' for Active; 'I' for Inactive)
    1  A    between atoms: C_1  and  C_2
    2  A    between atoms: C_2  and  C_3
    3  A    between atoms: C_3  and  C_4
    4  A    between atoms: C_4  and  C_5
    5  A    between atoms: C_5  and  C_6
    6  A    between atoms: C_6  and  C_7
    7  A    between atoms: C_7  and  C_8
    8  A    between atoms: C_8  and  C_9
    9  A    between atoms: C_9  and  C_10
   10  A    between atoms: C_10  and  C_11
   11  A    between atoms: N_13  and  C_14
   12  A    between atoms: C_14  and  C_15
   13  A    between atoms: C_18  and  O_19
   14  A    between atoms: C_20  and  O_21
   15  A    between atoms: O_21  and  C_22
                            x       y       z     vdW  Elec       q    Type
                         _______ _______ _______ _____ _____    ______ ____

>  <TORSDO>
F 13

>  <SCORE>
-5.118

>  <RMSD_LB>
8.822

>  <RMSD_UB>
11.537

$$$$
CHEMBL316364
 OpenBabel10172500123D

 25 25  0  0  0  0  0  0  0  0999 V2000
  146.6110  139.8490  153.8370 C   0  0  0  0  0  0  0  0  0  0  0  0
  147.0280  138.6960  153.9300 O   0  0  0  0  0  0  0  0  0  0  0  0
  145.3250  140.2070  154.1660 N   0  0  0  0  0  0  0  0  0  0  0  0
  145.0510  141.1500  154.0950 H   0  0  0  0  0  0  0  0  0  0  0  0
  147.4710  141.0060  153.3680 C   0  0  0  0  0  2  0  0  0  0  0  0
  146.5930  142.1480  152.8570 C   0  0  0  0  0  2  0  0  0  0  0  0
  146.6510  142.3030  151.3420 C   0  0  0  0  0  2  0  0  0  0  0  0
  145.3020  141.9340  150.7190 C   0  0  0  0  0  2  0  0  0  0  0  0
  145.4590  140.8410  149.6670 C   0  0  0  0  0  2  0  0  0  0  0  0
  146.8110  140.1410  149.8000 C   0  0  0  0  0  2  0  0  0  0  0  0
  146.6310  138.6810  150.2080 C   0  0  0  0  0  2  0  0  0  0  0  0
  145.3780  138.0840  149.5720 C   0  0  0  0  0  2  0  0  0  0  0  0
  145.3870  136.6130  151.6110 C   0  0  0  0  0  1  0  0  0  0  0  0
  145.0900  136.6890  150.1230 C   0  0  0  0  0  2  0  0  0  0  0  0
  144.3670  139.2210  154.6140 C   0  0  0  0  0  2  0  0  0  0  0  0
  143.1900  139.1050  153.6800 C   0  0  0  0  0  0  0  0  0  0  0  0
  143.3050  139.5000  152.3420 C   0  0  0  0  0  3  0  0  0  0  0  0
  142.2240  139.3740  151.4690 C   0  0  0  0  0  3  0  0  0  0  0  0
  141.0070  138.8610  151.9260 C   0  0  0  0  0  0  0  0  0  0  0  0
  140.8590  138.4790  153.2640 C   0  0  0  0  0  0  0  0  0  0  0  0
  141.9580  138.6100  154.1290 C   0  0  0  0  0  3  0  0  0  0  0  0
  139.9810  138.7460  151.0270 O   0  0  0  0  0  0  0  0  0  0  0  0
  140.1190  138.9680  150.1270 H   0  0  0  0  0  0  0  0  0  0  0  0
  139.7510  137.9670  153.8850 O   0  0  0  0  0  0  0  0  0  0  0  0
  138.7630  138.8780  154.3440 C   0  0  0  0  0  1  0  0  0  0  0  0
  1  2  2  0  0  0  0
  1  3  1  0  0  0  0
  3 15  1  0  0  0  0
  4  3  1  0  0  0  0
  5  1  1  0  0  0  0
  6  5  1  0  0  0  0
  7  6  1  0  0  0  0
  8  7  1  0  0  0  0
  9 10  1  0  0  0  0
  9  8  1  0  0  0  0
 10 11  1  0  0  0  0
 12 14  1  0  0  0  0
 12 11  1  0  0  0  0
 14 13  1  0  0  0  0
 16 21  1  0  0  0  0
 16 15  1  0  0  0  0
 17 16  2  0  0  0  0
 18 19  2  0  0  0  0
 18 17  1  0  0  0  0
 19 20  1  0  0  0  0
 20 24  1  0  0  0  0
 20 21  2  0  0  0  0
 22 19  1  0  0  0  0
 23 22  1  0  0  0  0
 24 25  1  0  0  0  0
M  END
>  <MODEL>
6

>  <REMARK>
 VINA RESULT:    -5.089      5.896      9.915
 INTER + INTRA:         -11.154
 INTER:                  -8.673
 INTRA:                  -2.481
 UNBOUND:                -2.346
  Name = CHEMBL316364
  15 active torsions:
  status: ('A' for Active; 'I' for Inactive)
    1  A    between atoms: C_1  and  C_2
    2  A    between atoms: C_2  and  C_3
    3  A    between atoms: C_3  and  C_4
    4  A    between atoms: C_4  and  C_5
    5  A    between atoms: C_5  and  C_6
    6  A    between atoms: C_6  and  C_7
    7  A    between atoms: C_7  and  C_8
    8  A    between atoms: C_8  and  C_9
    9  A    between atoms: C_9  and  C_10
   10  A    between atoms: C_10  and  C_11
   11  A    between atoms: N_13  and  C_14
   12  A    between atoms: C_14  and  C_15
   13  A    between atoms: C_18  and  O_19
   14  A    between atoms: C_20  and  O_21
   15  A    between atoms: O_21  and  C_22
                            x       y       z     vdW  Elec       q    Type
                         _______ _______ _______ _____ _____    ______ ____

>  <TORSDO>
F 13

>  <SCORE>
-5.089

>  <RMSD_LB>
5.896

>  <RMSD_UB>
9.915

$$$$
CHEMBL316364
 OpenBabel10172500123D

 25 25  0  0  0  0  0  0  0  0999 V2000
  141.6060  139.1920  150.6870 C   0  0  0  0  0  0  0  0  0  0  0  0
  141.0880  140.0150  149.9350 O   0  0  0  0  0  0  0  0  0  0  0  0
  142.8920  139.3150  151.1580 N   0  0  0  0  0  0  0  0  0  0  0  0
  143.2470  138.6380  151.7780 H   0  0  0  0  0  0  0  0  0  0  0  0
  140.8810  137.9600  151.1920 C   0  0  0  0  0  2  0  0  0  0  0  0
  139.8930  138.3390  152.2950 C   0  0  0  0  0  2  0  0  0  0  0  0
  138.5490  137.6340  152.1500 C   0  0  0  0  0  2  0  0  0  0  0  0
  138.1770  137.5020  150.6710 C   0  0  0  0  0  2  0  0  0  0  0  0
  137.5970  136.1240  150.3680 C   0  0  0  0  0  2  0  0  0  0  0  0
  136.0710  136.1740  150.3000 C   0  0  0  0  0  2  0  0  0  0  0  0
  135.4580  136.0300  151.6910 C   0  0  0  0  0  2  0  0  0  0  0  0
  135.7310  134.6440  152.2710 C   0  0  0  0  0  2  0  0  0  0  0  0
  135.8930  135.7380  154.5280 C   0  0  0  0  0  1  0  0  0  0  0  0
  135.3240  134.5700  153.7410 C   0  0  0  0  0  2  0  0  0  0  0  0
  143.7290  140.4230  150.7600 C   0  0  0  0  0  2  0  0  0  0  0  0
  144.7230  140.7990  151.8300 C   0  0  0  0  0  0  0  0  0  0  0  0
  145.4990  141.9560  151.7010 C   0  0  0  0  0  3  0  0  0  0  0  0
  146.4050  142.3190  152.6990 C   0  0  0  0  0  3  0  0  0  0  0  0
  146.5540  141.5210  153.8360 C   0  0  0  0  0  0  0  0  0  0  0  0
  145.8050  140.3480  153.9800 C   0  0  0  0  0  0  0  0  0  0  0  0
  144.8970  139.9980  152.9670 C   0  0  0  0  0  3  0  0  0  0  0  0
  147.4460  141.9260  154.7920 O   0  0  0  0  0  0  0  0  0  0  0  0
  147.2960  141.7160  155.6930 H   0  0  0  0  0  0  0  0  0  0  0  0
  145.8230  139.4470  155.0120 O   0  0  0  0  0  0  0  0  0  0  0  0
  146.8050  138.4220  154.9850 C   0  0  0  0  0  1  0  0  0  0  0  0
  1  3  1  0  0  0  0
  1  5  1  0  0  0  0
  2  1  2  0  0  0  0
  3  4  1  0  0  0  0
  5  6  1  0  0  0  0
  7  6  1  0  0  0  0
  8  7  1  0  0  0  0
  9  8  1  0  0  0  0
 10  9  1  0  0  0  0
 10 11  1  0  0  0  0
 11 12  1  0  0  0  0
 12 14  1  0  0  0  0
 14 13  1  0  0  0  0
 15  3  1  0  0  0  0
 15 16  1  0  0  0  0
 16 21  1  0  0  0  0
 17 16  2  0  0  0  0
 17 18  1  0  0  0  0
 18 19  2  0  0  0  0
 19 20  1  0  0  0  0
 19 22  1  0  0  0  0
 20 24  1  0  0  0  0
 21 20  2  0  0  0  0
 22 23  1  0  0  0  0
 25 24  1  0  0  0  0
M  END
>  <MODEL>
7

>  <REMARK>
 VINA RESULT:    -5.031      4.122      6.800
 INTER + INTRA:         -11.054
 INTER:                 -10.108
 INTRA:                  -0.946
 UNBOUND:                -2.346
  Name = CHEMBL316364
  15 active torsions:
  status: ('A' for Active; 'I' for Inactive)
    1  A    between atoms: C_1  and  C_2
    2  A    between atoms: C_2  and  C_3
    3  A    between atoms: C_3  and  C_4
    4  A    between atoms: C_4  and  C_5
    5  A    between atoms: C_5  and  C_6
    6  A    between atoms: C_6  and  C_7
    7  A    between atoms: C_7  and  C_8
    8  A    between atoms: C_8  and  C_9
    9  A    between atoms: C_9  and  C_10
   10  A    between atoms: C_10  and  C_11
   11  A    between atoms: N_13  and  C_14
   12  A    between atoms: C_14  and  C_15
   13  A    between atoms: C_18  and  O_19
   14  A    between atoms: C_20  and  O_21
   15  A    between atoms: O_21  and  C_22
                            x       y       z     vdW  Elec       q    Type
                         _______ _______ _______ _____ _____    ______ ____

>  <TORSDO>
F 13

>  <SCORE>
-5.031

>  <RMSD_LB>
4.122

>  <RMSD_UB>
6.800

$$$$
CHEMBL316364
 OpenBabel10172500123D

 25 25  0  0  0  0  0  0  0  0999 V2000
  144.1450  138.6290  152.3000 C   0  0  0  0  0  0  0  0  0  0  0  0
  144.5520  137.7050  153.0010 O   0  0  0  0  0  0  0  0  0  0  0  0
  142.9440  139.2610  152.5200 N   0  0  0  0  0  0  0  0  0  0  0  0
  142.6790  140.0120  151.9410 H   0  0  0  0  0  0  0  0  0  0  0  0
  144.9270  139.1840  151.1250 C   0  0  0  0  0  2  0  0  0  0  0  0
  144.2520  140.4440  150.5850 C   0  0  0  0  0  2  0  0  0  0  0  0
  145.0710  141.7050  150.8370 C   0  0  0  0  0  2  0  0  0  0  0  0
  146.5630  141.3690  150.8750 C   0  0  0  0  0  2  0  0  0  0  0  0
  147.2920  142.2040  151.9220 C   0  0  0  0  0  2  0  0  0  0  0  0
  146.6620  142.0260  153.3020 C   0  0  0  0  0  2  0  0  0  0  0  0
  147.7330  141.9640  154.3880 C   0  0  0  0  0  2  0  0  0  0  0  0
  148.5470  140.6760  154.2840 C   0  0  0  0  0  2  0  0  0  0  0  0
  147.9910  138.5200  153.1180 C   0  0  0  0  0  1  0  0  0  0  0  0
  147.6390  139.4490  154.2670 C   0  0  0  0  0  2  0  0  0  0  0  0
  142.0660  138.8440  153.5890 C   0  0  0  0  0  2  0  0  0  0  0  0
  140.7460  138.3280  153.0730 C   0  0  0  0  0  0  0  0  0  0  0  0
  139.6310  138.2660  153.9150 C   0  0  0  0  0  3  0  0  0  0  0  0
  138.4030  137.8090  153.4350 C   0  0  0  0  0  3  0  0  0  0  0  0
  138.2770  137.3970  152.1060 C   0  0  0  0  0  0  0  0  0  0  0  0
  139.3820  137.4300  151.2480 C   0  0  0  0  0  0  0  0  0  0  0  0
  140.6100  137.8940  151.7470 C   0  0  0  0  0  3  0  0  0  0  0  0
  137.0480  136.9700  151.6800 O   0  0  0  0  0  0  0  0  0  0  0  0
  136.9830  136.3750  150.9580 H   0  0  0  0  0  0  0  0  0  0  0  0
  139.4470  137.0630  149.9300 O   0  0  0  0  0  0  0  0  0  0  0  0
  139.3380  138.0840  148.9480 C   0  0  0  0  0  1  0  0  0  0  0  0
  1  3  1  0  0  0  0
  1  2  2  0  0  0  0
  3 15  1  0  0  0  0
  4  3  1  0  0  0  0
  5  1  1  0  0  0  0
  6  7  1  0  0  0  0
  6  5  1  0  0  0  0
  7  8  1  0  0  0  0
  8  9  1  0  0  0  0
  9 10  1  0  0  0  0
 10 11  1  0  0  0  0
 12 11  1  0  0  0  0
 13 14  1  0  0  0  0
 14 12  1  0  0  0  0
 16 15  1  0  0  0  0
 16 17  1  0  0  0  0
 18 17  2  0  0  0  0
 19 18  1  0  0  0  0
 20 21  1  0  0  0  0
 20 19  2  0  0  0  0
 21 16  2  0  0  0  0
 22 19  1  0  0  0  0
 23 22  1  0  0  0  0
 24 20  1  0  0  0  0
 25 24  1  0  0  0  0
M  END
>  <MODEL>
8

>  <REMARK>
 VINA RESULT:    -4.877      4.841     10.395
 INTER + INTRA:         -10.788
 INTER:                  -9.186
 INTRA:                  -1.601
 UNBOUND:                -2.346
  Name = CHEMBL316364
  15 active torsions:
  status: ('A' for Active; 'I' for Inactive)
    1  A    between atoms: C_1  and  C_2
    2  A    between atoms: C_2  and  C_3
    3  A    between atoms: C_3  and  C_4
    4  A    between atoms: C_4  and  C_5
    5  A    between atoms: C_5  and  C_6
    6  A    between atoms: C_6  and  C_7
    7  A    between atoms: C_7  and  C_8
    8  A    between atoms: C_8  and  C_9
    9  A    between atoms: C_9  and  C_10
   10  A    between atoms: C_10  and  C_11
   11  A    between atoms: N_13  and  C_14
   12  A    between atoms: C_14  and  C_15
   13  A    between atoms: C_18  and  O_19
   14  A    between atoms: C_20  and  O_21
   15  A    between atoms: O_21  and  C_22
                            x       y       z     vdW  Elec       q    Type
                         _______ _______ _______ _____ _____    ______ ____

>  <TORSDO>
F 13

>  <SCORE>
-4.877

>  <RMSD_LB>
4.841

>  <RMSD_UB>
10.395

$$$$
CHEMBL316364
 OpenBabel10172500123D

 25 25  0  0  0  0  0  0  0  0999 V2000
  147.2590  141.1780  152.1840 C   0  0  0  0  0  0  0  0  0  0  0  0
  148.0400  140.2760  152.4800 O   0  0  0  0  0  0  0  0  0  0  0  0
  146.0230  141.3170  152.7680 N   0  0  0  0  0  0  0  0  0  0  0  0
  145.4470  142.0730  152.5100 H   0  0  0  0  0  0  0  0  0  0  0  0
  147.5780  142.2460  151.1550 C   0  0  0  0  0  2  0  0  0  0  0  0
  146.3740  142.4810  150.2430 C   0  0  0  0  0  2  0  0  0  0  0  0
  146.4460  141.6700  148.9540 C   0  0  0  0  0  2  0  0  0  0  0  0
  145.7270  140.3310  149.1300 C   0  0  0  0  0  2  0  0  0  0  0  0
  146.7040  139.1630  149.0430 C   0  0  0  0  0  2  0  0  0  0  0  0
  146.4610  138.1600  150.1690 C   0  0  0  0  0  2  0  0  0  0  0  0
  145.8570  136.8670  149.6270 C   0  0  0  0  0  2  0  0  0  0  0  0
  144.7430  136.3560  150.5390 C   0  0  0  0  0  2  0  0  0  0  0  0
  143.1530  137.0410  148.7170 C   0  0  0  0  0  1  0  0  0  0  0  0
  143.5040  135.9690  149.7340 C   0  0  0  0  0  2  0  0  0  0  0  0
  145.5540  140.3720  153.7570 C   0  0  0  0  0  2  0  0  0  0  0  0
  144.2650  139.7080  153.3430 C   0  0  0  0  0  0  0  0  0  0  0  0
  143.7800  139.8520  152.0380 C   0  0  0  0  0  3  0  0  0  0  0  0
  142.5990  139.2220  151.6460 C   0  0  0  0  0  3  0  0  0  0  0  0
  141.8800  138.4460  152.5580 C   0  0  0  0  0  0  0  0  0  0  0  0
  142.3320  138.3020  153.8740 C   0  0  0  0  0  0  0  0  0  0  0  0
  143.5240  138.9420  154.2530 C   0  0  0  0  0  3  0  0  0  0  0  0
  140.7340  137.8380  152.1200 O   0  0  0  0  0  0  0  0  0  0  0  0
  140.4460  137.0380  152.5170 H   0  0  0  0  0  0  0  0  0  0  0  0
  141.7610  137.5930  154.8970 O   0  0  0  0  0  0  0  0  0  0  0  0
  140.6860  138.1930  155.6060 C   0  0  0  0  0  1  0  0  0  0  0  0
  1  2  2  0  0  0  0
  1  3  1  0  0  0  0
  3 15  1  0  0  0  0
  4  3  1  0  0  0  0
  5  1  1  0  0  0  0
  6  5  1  0  0  0  0
  7  8  1  0  0  0  0
  7  6  1  0  0  0  0
  9  8  1  0  0  0  0
  9 10  1  0  0  0  0
 11 10  1  0  0  0  0
 11 12  1  0  0  0  0
 13 14  1  0  0  0  0
 14 12  1  0  0  0  0
 16 15  1  0  0  0  0
 16 21  1  0  0  0  0
 17 16  2  0  0  0  0
 18 17  1  0  0  0  0
 18 19  2  0  0  0  0
 19 20  1  0  0  0  0
 20 21  2  0  0  0  0
 20 24  1  0  0  0  0
 22 23  1  0  0  0  0
 22 19  1  0  0  0  0
 24 25  1  0  0  0  0
M  END
>  <MODEL>
9

>  <REMARK>
 VINA RESULT:    -4.737      6.763      9.983
 INTER + INTRA:         -10.545
 INTER:                  -8.198
 INTRA:                  -2.346
 UNBOUND:                -2.346
  Name = CHEMBL316364
  15 active torsions:
  status: ('A' for Active; 'I' for Inactive)
    1  A    between atoms: C_1  and  C_2
    2  A    between atoms: C_2  and  C_3
    3  A    between atoms: C_3  and  C_4
    4  A    between atoms: C_4  and  C_5
    5  A    between atoms: C_5  and  C_6
    6  A    between atoms: C_6  and  C_7
    7  A    between atoms: C_7  and  C_8
    8  A    between atoms: C_8  and  C_9
    9  A    between atoms: C_9  and  C_10
   10  A    between atoms: C_10  and  C_11
   11  A    between atoms: N_13  and  C_14
   12  A    between atoms: C_14  and  C_15
   13  A    between atoms: C_18  and  O_19
   14  A    between atoms: C_20  and  O_21
   15  A    between atoms: O_21  and  C_22
                            x       y       z     vdW  Elec       q    Type
                         _______ _______ _______ _____ _____    ______ ____

>  <TORSDO>
F 13

>  <SCORE>
-4.737

>  <RMSD_LB>
6.763

>  <RMSD_UB>
9.983

$$$$
