CHEMBL4594294
 OpenBabel10172500343D

 36 37  0  0  1  0  0  0  0  0999 V2000
  142.9240  138.5890  153.2610 C   0  0  0  0  0  0  0  0  0  0  0  0
  142.5810  139.2350  154.4510 C   0  0  0  0  0  3  0  0  0  0  0  0
  141.2570  139.2620  154.8710 C   0  0  0  0  0  3  0  0  0  0  0  0
  140.2710  138.6220  154.1240 C   0  0  0  0  0  0  0  0  0  0  0  0
  140.6300  137.9010  152.9790 C   0  0  0  0  0  3  0  0  0  0  0  0
  141.9430  137.8960  152.5190 C   0  0  0  0  0  0  0  0  0  0  0  0
  142.3030  137.2280  151.3780 O   0  0  0  0  0  0  0  0  0  0  0  0
  141.7130  137.6880  150.1620 C   0  0  0  0  0  1  0  0  0  0  0  0
  144.2260  138.6680  152.7240 O   0  0  0  0  0  0  0  0  0  0  0  0
  146.9490  139.5170  153.0140 C   0  0  2  0  0  3  0  0  0  0  0  0
  147.8870  140.6600  153.4590 C   0  0  0  0  0  2  0  0  0  0  0  0
  148.5480  141.3620  152.2780 C   0  0  0  0  0  2  0  0  0  0  0  0
  147.5020  141.8540  151.2850 C   0  0  0  0  0  2  0  0  0  0  0  0
  146.5670  140.7240  150.8760 C   0  0  0  0  0  2  0  0  0  0  0  0
  145.9800  140.0600  152.0380 N   0  0  0  0  0  0  0  0  0  0  0  0
  144.6170  139.7650  151.9600 C   0  0  0  0  0  0  0  0  0  0  0  0
  143.8590  140.3870  151.2210 O   0  0  0  0  0  0  0  0  0  0  0  0
  146.4140  138.8100  154.2900 C   0  0  0  0  0  2  0  0  0  0  0  0
  147.7640  138.2200  156.1970 C   0  0  0  0  0  1  0  0  0  0  0  0
  147.0100  139.2810  155.5430 N   0  0  0  0  0  4  0  0  0  0  0  0
  147.6370  140.0600  155.3420 H   0  0  0  0  0  0  0  0  0  0  0  0
  146.2590  139.5760  156.1670 H   0  0  0  0  0  0  0  0  0  0  0  0
  138.8310  138.6580  154.5320 C   0  0  0  0  0  2  0  0  0  0  0  0
  138.2040  137.3790  154.3270 N   0  0  0  0  0  0  0  0  0  0  0  0
  137.0240  137.0810  154.9470 C   0  0  0  0  0  0  0  0  0  0  0  0
  136.4280  137.8760  155.6760 O   0  0  0  0  0  0  0  0  0  0  0  0
  138.6290  136.7140  153.7370 H   0  0  0  0  0  0  0  0  0  0  0  0
  136.4990  135.6920  154.6740 C   0  0  0  0  0  2  0  0  0  0  0  0
  134.9800  135.7020  154.5580 C   0  0  0  0  0  2  0  0  0  0  0  0
  134.4710  134.5720  153.6630 C   0  0  0  0  0  2  0  0  0  0  0  0
  135.5380  134.1780  152.6400 C   0  0  0  0  0  2  0  0  0  0  0  0
  134.9610  134.0650  151.2590 C   0  0  0  0  0  3  0  0  0  0  0  0
  133.8750  133.3320  150.9620 C   0  0  0  0  0  3  0  0  0  0  0  0
  133.2940  133.2150  149.5750 C   0  0  0  0  0  3  0  0  0  0  0  0
  133.1070  134.6040  148.9660 C   0  0  0  0  0  1  0  0  0  0  0  0
  134.1950  132.3560  148.6870 C   0  0  0  0  0  1  0  0  0  0  0  0
  1  2  1  0  0  0  0
  2  3  2  0  0  0  0
  4 23  1  0  0  0  0
  4  3  1  0  0  0  0
  5  4  2  0  0  0  0
  6  5  1  0  0  0  0
  6  1  2  0  0  0  0
  7  6  1  0  0  0  0
  8  7  1  0  0  0  0
  9  1  1  0  0  0  0
 10 11  1  0  0  0  0
 10 18  1  1  0  0  0
 12 11  1  0  0  0  0
 13 12  1  0  0  0  0
 14 13  1  0  0  0  0
 14 15  1  0  0  0  0
 15 10  1  0  0  0  0
 16 15  1  0  0  0  0
 16  9  1  0  0  0  0
 17 16  2  0  0  0  0
 18 20  1  0  0  0  0
 20 22  1  0  0  0  0
 20 19  1  0  0  0  0
 21 20  1  0  0  0  0
 24 23  1  0  0  0  0
 24 25  1  0  0  0  0
 25 26  2  0  0  0  0
 27 24  1  0  0  0  0
 28 25  1  0  0  0  0
 29 28  1  0  0  0  0
 30 29  1  0  0  0  0
 31 30  1  0  0  0  0
 32 31  1  0  0  0  0
 33 32  2  0  0  0  0
 34 33  1  0  0  0  0
 35 34  1  0  0  0  0
 36 34  1  0  0  0  0
M  END
>  <MODEL>
1

>  <REMARK>
 VINA RESULT:    -7.879      0.000      0.000
 INTER + INTRA:         -15.564
 INTER:                 -14.252
 INTRA:                  -1.312
 UNBOUND:                -1.696
  Name = CHEMBL4594294
  17 active torsions:
  status: ('A' for Active; 'I' for Inactive)
    1  A    between atoms: C_1  and  N_2
    2  A    between atoms: N_2  and  C_3
    3  A    between atoms: C_3  and  C_4
    4  A    between atoms: C_10  and  O_12
    5  A    between atoms: O_12  and  C_13
    6  A    between atoms: C_16  and  C_17
    7  A    between atoms: C_17  and  N_18
    8  A    between atoms: C_19  and  C_21
    9  A    between atoms: C_21  and  C_22
   10  A    between atoms: C_22  and  C_23
   11  A    between atoms: C_23  and  C_24
   12  A    between atoms: C_24  and  C_25
   13  A    between atoms: C_26  and  C_27
   14  A    between atoms: C_27  and  C_28
   15  A    between atoms: C_27  and  C_29
   16  A    between atoms: C_31  and  O_32
   17  A    between atoms: O_32  and  C_33
                            x       y       z     vdW  Elec       q    Type
                         _______ _______ _______ _____ _____    ______ ____

>  <TORSDO>
F 13

>  <SCORE>
-7.879

>  <RMSD_LB>
0.000

>  <RMSD_UB>
0.000

$$$$
CHEMBL4594294
 OpenBabel10172500343D

 36 37  0  0  1  0  0  0  0  0999 V2000
  142.8850  137.7410  152.7850 C   0  0  0  0  0  0  0  0  0  0  0  0
  142.4790  138.1970  154.0410 C   0  0  0  0  0  3  0  0  0  0  0  0
  141.1320  138.4210  154.2980 C   0  0  0  0  0  3  0  0  0  0  0  0
  140.1790  138.1650  153.3140 C   0  0  0  0  0  0  0  0  0  0  0  0
  140.5800  137.6250  152.0870 C   0  0  0  0  0  3  0  0  0  0  0  0
  141.9270  137.4320  151.7960 C   0  0  0  0  0  0  0  0  0  0  0  0
  142.3380  136.9410  150.5840 O   0  0  0  0  0  0  0  0  0  0  0  0
  141.3080  136.6190  149.6490 C   0  0  0  0  0  1  0  0  0  0  0  0
  144.2490  137.6450  152.4370 O   0  0  0  0  0  0  0  0  0  0  0  0
  146.2950  139.5800  152.9790 C   0  0  2  0  0  3  0  0  0  0  0  0
  147.8080  139.8850  152.9220 C   0  0  0  0  0  2  0  0  0  0  0  0
  148.4550  139.8750  154.3020 C   0  0  0  0  0  2  0  0  0  0  0  0
  148.1780  138.5600  155.0210 C   0  0  0  0  0  2  0  0  0  0  0  0
  146.6860  138.2580  155.0460 C   0  0  0  0  0  2  0  0  0  0  0  0
  146.1020  138.3070  153.7080 N   0  0  0  0  0  0  0  0  0  0  0  0
  145.2040  137.2870  153.3850 C   0  0  0  0  0  0  0  0  0  0  0  0
  145.2270  136.1980  153.9520 O   0  0  0  0  0  0  0  0  0  0  0  0
  145.7230  139.7160  151.5410 C   0  0  0  0  0  2  0  0  0  0  0  0
  145.2410  141.9580  150.8000 C   0  0  0  0  0  1  0  0  0  0  0  0
  144.6910  140.7460  151.3910 N   0  0  0  0  0  4  0  0  0  0  0  0
  143.9480  140.3890  150.7910 H   0  0  0  0  0  0  0  0  0  0  0  0
  144.3260  140.9740  152.3160 H   0  0  0  0  0  0  0  0  0  0  0  0
  138.7230  138.4250  153.5480 C   0  0  0  0  0  2  0  0  0  0  0  0
  138.1990  137.5520  154.5640 N   0  0  0  0  0  0  0  0  0  0  0  0
  137.3240  138.0280  155.4990 C   0  0  0  0  0  0  0  0  0  0  0  0
  136.9210  139.1920  155.5120 O   0  0  0  0  0  0  0  0  0  0  0  0
  138.4740  136.6060  154.5860 H   0  0  0  0  0  0  0  0  0  0  0  0
  136.8850  137.0140  156.5280 C   0  0  0  0  0  2  0  0  0  0  0  0
  136.5890  135.6720  155.8730 C   0  0  0  0  0  2  0  0  0  0  0  0
  135.0970  135.4900  155.5960 C   0  0  0  0  0  2  0  0  0  0  0  0
  134.8860  134.5550  154.4040 C   0  0  0  0  0  2  0  0  0  0  0  0
  135.6070  135.0470  153.1830 C   0  0  0  0  0  3  0  0  0  0  0  0
  135.8120  134.3010  152.0860 C   0  0  0  0  0  3  0  0  0  0  0  0
  136.5380  134.7920  150.8590 C   0  0  0  0  0  3  0  0  0  0  0  0
  135.6630  134.6010  149.6200 C   0  0  0  0  0  1  0  0  0  0  0  0
  136.9290  136.2610  151.0190 C   0  0  0  0  0  1  0  0  0  0  0  0
  1  2  1  0  0  0  0
  2  3  2  0  0  0  0
  4 23  1  0  0  0  0
  4  3  1  0  0  0  0
  5  4  2  0  0  0  0
  6  5  1  0  0  0  0
  6  1  2  0  0  0  0
  7  6  1  0  0  0  0
  8  7  1  0  0  0  0
  9  1  1  0  0  0  0
  9 16  1  0  0  0  0
 10 18  1  6  0  0  0
 10 15  1  0  0  0  0
 11 10  1  0  0  0  0
 11 12  1  0  0  0  0
 12 13  1  0  0  0  0
 13 14  1  0  0  0  0
 15 14  1  0  0  0  0
 16 15  1  0  0  0  0
 16 17  2  0  0  0  0
 19 20  1  0  0  0  0
 20 18  1  0  0  0  0
 20 22  1  0  0  0  0
 21 20  1  0  0  0  0
 23 24  1  0  0  0  0
 24 27  1  0  0  0  0
 24 25  1  0  0  0  0
 25 26  2  0  0  0  0
 25 28  1  0  0  0  0
 29 28  1  0  0  0  0
 30 29  1  0  0  0  0
 31 30  1  0  0  0  0
 32 31  1  0  0  0  0
 33 32  2  0  0  0  0
 34 36  1  0  0  0  0
 34 33  1  0  0  0  0
 35 34  1  0  0  0  0
M  END
>  <MODEL>
2

>  <REMARK>
 VINA RESULT:    -7.870      1.553      2.878
 INTER + INTRA:         -15.548
 INTER:                 -13.652
 INTRA:                  -1.895
 UNBOUND:                -1.696
  Name = CHEMBL4594294
  17 active torsions:
  status: ('A' for Active; 'I' for Inactive)
    1  A    between atoms: C_1  and  N_2
    2  A    between atoms: N_2  and  C_3
    3  A    between atoms: C_3  and  C_4
    4  A    between atoms: C_10  and  O_12
    5  A    between atoms: O_12  and  C_13
    6  A    between atoms: C_16  and  C_17
    7  A    between atoms: C_17  and  N_18
    8  A    between atoms: C_19  and  C_21
    9  A    between atoms: C_21  and  C_22
   10  A    between atoms: C_22  and  C_23
   11  A    between atoms: C_23  and  C_24
   12  A    between atoms: C_24  and  C_25
   13  A    between atoms: C_26  and  C_27
   14  A    between atoms: C_27  and  C_28
   15  A    between atoms: C_27  and  C_29
   16  A    between atoms: C_31  and  O_32
   17  A    between atoms: O_32  and  C_33
                            x       y       z     vdW  Elec       q    Type
                         _______ _______ _______ _____ _____    ______ ____

>  <TORSDO>
F 13

>  <SCORE>
-7.870

>  <RMSD_LB>
1.553

>  <RMSD_UB>
2.878

$$$$
CHEMBL4594294
 OpenBabel10172500343D

 36 37  0  0  1  0  0  0  0  0999 V2000
  143.1510  138.5350  153.1480 C   0  0  0  0  0  0  0  0  0  0  0  0
  142.5410  139.0040  154.3140 C   0  0  0  0  0  3  0  0  0  0  0  0
  141.1670  138.8850  154.4760 C   0  0  0  0  0  3  0  0  0  0  0  0
  140.3950  138.2710  153.4920 C   0  0  0  0  0  0  0  0  0  0  0  0
  141.0190  137.7230  152.3660 C   0  0  0  0  0  3  0  0  0  0  0  0
  142.3880  137.8690  152.1640 C   0  0  0  0  0  0  0  0  0  0  0  0
  143.0070  137.3720  151.0470 O   0  0  0  0  0  0  0  0  0  0  0  0
  142.1770  136.6720  150.1210 C   0  0  0  0  0  1  0  0  0  0  0  0
  144.5150  138.7710  152.8780 O   0  0  0  0  0  0  0  0  0  0  0  0
  147.0410  139.9230  153.5950 C   0  0  2  0  0  3  0  0  0  0  0  0
  147.7620  141.1720  154.1480 C   0  0  0  0  0  2  0  0  0  0  0  0
  148.5390  141.9200  153.0700 C   0  0  0  0  0  2  0  0  0  0  0  0
  147.6350  142.2710  151.8950 C   0  0  0  0  0  2  0  0  0  0  0  0
  146.9100  141.0370  151.3780 C   0  0  0  0  0  2  0  0  0  0  0  0
  146.2040  140.3360  152.4480 N   0  0  0  0  0  0  0  0  0  0  0  0
  144.9140  139.8890  152.1510 C   0  0  0  0  0  0  0  0  0  0  0  0
  144.2340  140.4080  151.2700 O   0  0  0  0  0  0  0  0  0  0  0  0
  146.3710  139.1870  154.7880 C   0  0  0  0  0  2  0  0  0  0  0  0
  148.0030  137.4150  154.7560 C   0  0  0  0  0  1  0  0  0  0  0  0
  146.5840  137.7380  154.8060 N   0  0  0  0  0  4  0  0  0  0  0  0
  146.1840  137.3530  155.6610 H   0  0  0  0  0  0  0  0  0  0  0  0
  146.1320  137.3350  153.9850 H   0  0  0  0  0  0  0  0  0  0  0  0
  138.9080  138.1540  153.6220 C   0  0  0  0  0  2  0  0  0  0  0  0
  138.5450  137.5570  154.8800 N   0  0  0  0  0  0  0  0  0  0  0  0
  137.5840  138.1300  155.6640 C   0  0  0  0  0  0  0  0  0  0  0  0
  136.9690  139.1460  155.3400 O   0  0  0  0  0  0  0  0  0  0  0  0
  138.9920  136.7310  155.1770 H   0  0  0  0  0  0  0  0  0  0  0  0
  137.3310  137.4210  156.9730 C   0  0  0  0  0  2  0  0  0  0  0  0
  137.0770  135.9370  156.7440 C   0  0  0  0  0  2  0  0  0  0  0  0
  135.7710  135.4760  157.3890 C   0  0  0  0  0  2  0  0  0  0  0  0
  134.8510  134.8450  156.3430 C   0  0  0  0  0  2  0  0  0  0  0  0
  135.3240  135.1360  154.9480 C   0  0  0  0  0  3  0  0  0  0  0  0
  134.5670  134.9630  153.8520 C   0  0  0  0  0  3  0  0  0  0  0  0
  135.0400  135.2530  152.4490 C   0  0  0  0  0  3  0  0  0  0  0  0
  136.1850  136.2660  152.4810 C   0  0  0  0  0  1  0  0  0  0  0  0
  135.4830  133.9650  151.7560 C   0  0  0  0  0  1  0  0  0  0  0  0
  1  2  1  0  0  0  0
  2  3  2  0  0  0  0
  4 23  1  0  0  0  0
  4  3  1  0  0  0  0
  5  4  2  0  0  0  0
  6  5  1  0  0  0  0
  6  1  2  0  0  0  0
  7  6  1  0  0  0  0
  8  7  1  0  0  0  0
  9  1  1  0  0  0  0
 10 11  1  0  0  0  0
 10 18  1  1  0  0  0
 12 11  1  0  0  0  0
 13 12  1  0  0  0  0
 14 13  1  0  0  0  0
 14 15  1  0  0  0  0
 15 10  1  0  0  0  0
 16 15  1  0  0  0  0
 16  9  1  0  0  0  0
 17 16  2  0  0  0  0
 18 20  1  0  0  0  0
 19 20  1  0  0  0  0
 20 21  1  0  0  0  0
 22 20  1  0  0  0  0
 23 24  1  0  0  0  0
 24 27  1  0  0  0  0
 24 25  1  0  0  0  0
 25 28  1  0  0  0  0
 26 25  2  0  0  0  0
 29 28  1  0  0  0  0
 29 30  1  0  0  0  0
 31 30  1  0  0  0  0
 32 31  1  0  0  0  0
 33 32  2  0  0  0  0
 34 35  1  0  0  0  0
 34 33  1  0  0  0  0
 36 34  1  0  0  0  0
M  END
>  <MODEL>
3

>  <REMARK>
 VINA RESULT:    -7.793      1.398      2.123
 INTER + INTRA:         -15.411
 INTER:                 -13.696
 INTRA:                  -1.715
 UNBOUND:                -1.696
  Name = CHEMBL4594294
  17 active torsions:
  status: ('A' for Active; 'I' for Inactive)
    1  A    between atoms: C_1  and  N_2
    2  A    between atoms: N_2  and  C_3
    3  A    between atoms: C_3  and  C_4
    4  A    between atoms: C_10  and  O_12
    5  A    between atoms: O_12  and  C_13
    6  A    between atoms: C_16  and  C_17
    7  A    between atoms: C_17  and  N_18
    8  A    between atoms: C_19  and  C_21
    9  A    between atoms: C_21  and  C_22
   10  A    between atoms: C_22  and  C_23
   11  A    between atoms: C_23  and  C_24
   12  A    between atoms: C_24  and  C_25
   13  A    between atoms: C_26  and  C_27
   14  A    between atoms: C_27  and  C_28
   15  A    between atoms: C_27  and  C_29
   16  A    between atoms: C_31  and  O_32
   17  A    between atoms: O_32  and  C_33
                            x       y       z     vdW  Elec       q    Type
                         _______ _______ _______ _____ _____    ______ ____

>  <TORSDO>
F 13

>  <SCORE>
-7.793

>  <RMSD_LB>
1.398

>  <RMSD_UB>
2.123

$$$$
CHEMBL4594294
 OpenBabel10172500343D

 36 37  0  0  1  0  0  0  0  0999 V2000
  137.9060  137.0750  151.8840 C   0  0  0  0  0  0  0  0  0  0  0  0
  138.9040  137.0430  150.9090 C   0  0  0  0  0  3  0  0  0  0  0  0
  140.1630  137.5620  151.1850 C   0  0  0  0  0  3  0  0  0  0  0  0
  140.4440  138.0890  152.4440 C   0  0  0  0  0  0  0  0  0  0  0  0
  139.4690  138.0410  153.4460 C   0  0  0  0  0  3  0  0  0  0  0  0
  138.1890  137.5630  153.1780 C   0  0  0  0  0  0  0  0  0  0  0  0
  137.2120  137.5460  154.1390 O   0  0  0  0  0  0  0  0  0  0  0  0
  137.4120  136.6460  155.2290 C   0  0  0  0  0  1  0  0  0  0  0  0
  136.5770  136.6990  151.5970 O   0  0  0  0  0  0  0  0  0  0  0  0
  134.6630  134.6660  150.9410 C   0  0  2  0  0  3  0  0  0  0  0  0
  134.3720  133.4220  150.0740 C   0  0  0  0  0  2  0  0  0  0  0  0
  133.3740  133.7120  148.9590 C   0  0  0  0  0  2  0  0  0  0  0  0
  133.8380  134.8880  148.1080 C   0  0  0  0  0  2  0  0  0  0  0  0
  134.1480  136.0980  148.9770 C   0  0  0  0  0  2  0  0  0  0  0  0
  135.0840  135.7690  150.0500 N   0  0  0  0  0  0  0  0  0  0  0  0
  136.1050  136.6920  150.2870 C   0  0  0  0  0  0  0  0  0  0  0  0
  136.4910  137.4710  149.4190 O   0  0  0  0  0  0  0  0  0  0  0  0
  135.6050  134.2360  152.0990 C   0  0  0  0  0  2  0  0  0  0  0  0
  133.8920  135.3390  153.3870 C   0  0  0  0  0  1  0  0  0  0  0  0
  135.0750  134.4900  153.4410 N   0  0  0  0  0  4  0  0  0  0  0  0
  134.8290  133.6020  153.8770 H   0  0  0  0  0  0  0  0  0  0  0  0
  135.7920  134.9700  153.9860 H   0  0  0  0  0  0  0  0  0  0  0  0
  141.7800  138.6840  152.7640 C   0  0  0  0  0  2  0  0  0  0  0  0
  142.2030  139.5910  151.7300 N   0  0  0  0  0  0  0  0  0  0  0  0
  143.5240  139.6890  151.3970 C   0  0  0  0  0  0  0  0  0  0  0  0
  144.4040  139.0090  151.9260 O   0  0  0  0  0  0  0  0  0  0  0  0
  141.5360  140.1430  151.2610 H   0  0  0  0  0  0  0  0  0  0  0  0
  143.8310  140.7060  150.3240 C   0  0  0  0  0  2  0  0  0  0  0  0
  145.1480  140.3790  149.6310 C   0  0  0  0  0  2  0  0  0  0  0  0
  146.1110  141.5650  149.6500 C   0  0  0  0  0  2  0  0  0  0  0  0
  145.8310  142.4620  150.8570 C   0  0  0  0  0  2  0  0  0  0  0  0
  146.8300  142.2360  151.9540 C   0  0  0  0  0  3  0  0  0  0  0  0
  146.5150  141.7300  153.1580 C   0  0  0  0  0  3  0  0  0  0  0  0
  147.5160  141.5040  154.2630 C   0  0  0  0  0  3  0  0  0  0  0  0
  147.5680  140.0200  154.6260 C   0  0  0  0  0  1  0  0  0  0  0  0
  148.8980  142.0030  153.8440 C   0  0  0  0  0  1  0  0  0  0  0  0
  1  6  1  0  0  0  0
  2  3  1  0  0  0  0
  2  1  2  0  0  0  0
  3  4  2  0  0  0  0
  4 23  1  0  0  0  0
  4  5  1  0  0  0  0
  6  5  2  0  0  0  0
  6  7  1  0  0  0  0
  7  8  1  0  0  0  0
  9  1  1  0  0  0  0
 10 18  1  1  0  0  0
 11 10  1  0  0  0  0
 12 11  1  0  0  0  0
 13 12  1  0  0  0  0
 13 14  1  0  0  0  0
 14 15  1  0  0  0  0
 15 16  1  0  0  0  0
 15 10  1  0  0  0  0
 16  9  1  0  0  0  0
 17 16  2  0  0  0  0
 18 20  1  0  0  0  0
 19 20  1  0  0  0  0
 20 21  1  0  0  0  0
 20 22  1  0  0  0  0
 24 23  1  0  0  0  0
 25 24  1  0  0  0  0
 25 26  2  0  0  0  0
 27 24  1  0  0  0  0
 28 25  1  0  0  0  0
 29 30  1  0  0  0  0
 29 28  1  0  0  0  0
 30 31  1  0  0  0  0
 31 32  1  0  0  0  0
 32 33  2  0  0  0  0
 33 34  1  0  0  0  0
 34 35  1  0  0  0  0
 36 34  1  0  0  0  0
M  END
>  <MODEL>
4

>  <REMARK>
 VINA RESULT:    -7.603      2.424     11.482
 INTER + INTRA:         -15.078
 INTER:                 -13.750
 INTRA:                  -1.327
 UNBOUND:                -1.696
  Name = CHEMBL4594294
  17 active torsions:
  status: ('A' for Active; 'I' for Inactive)
    1  A    between atoms: C_1  and  N_2
    2  A    between atoms: N_2  and  C_3
    3  A    between atoms: C_3  and  C_4
    4  A    between atoms: C_10  and  O_12
    5  A    between atoms: O_12  and  C_13
    6  A    between atoms: C_16  and  C_17
    7  A    between atoms: C_17  and  N_18
    8  A    between atoms: C_19  and  C_21
    9  A    between atoms: C_21  and  C_22
   10  A    between atoms: C_22  and  C_23
   11  A    between atoms: C_23  and  C_24
   12  A    between atoms: C_24  and  C_25
   13  A    between atoms: C_26  and  C_27
   14  A    between atoms: C_27  and  C_28
   15  A    between atoms: C_27  and  C_29
   16  A    between atoms: C_31  and  O_32
   17  A    between atoms: O_32  and  C_33
                            x       y       z     vdW  Elec       q    Type
                         _______ _______ _______ _____ _____    ______ ____

>  <TORSDO>
F 13

>  <SCORE>
-7.603

>  <RMSD_LB>
2.424

>  <RMSD_UB>
11.482

$$$$
CHEMBL4594294
 OpenBabel10172500343D

 36 37  0  0  1  0  0  0  0  0999 V2000
  134.8490  134.4350  149.4550 C   0  0  0  0  0  0  0  0  0  0  0  0
  135.6280  133.9810  150.5210 C   0  0  0  0  0  3  0  0  0  0  0  0
  135.2200  134.2130  151.8290 C   0  0  0  0  0  3  0  0  0  0  0  0
  134.0190  134.8710  152.0830 C   0  0  0  0  0  0  0  0  0  0  0  0
  133.1970  135.2470  151.0140 C   0  0  0  0  0  3  0  0  0  0  0  0
  133.6070  135.0610  149.6970 C   0  0  0  0  0  0  0  0  0  0  0  0
  132.8310  135.4590  148.6400 O   0  0  0  0  0  0  0  0  0  0  0  0
  132.7540  136.8650  148.4050 C   0  0  0  0  0  1  0  0  0  0  0  0
  135.2990  134.3550  148.1210 O   0  0  0  0  0  0  0  0  0  0  0  0
  136.4510  134.3520  145.4950 C   0  0  2  0  0  3  0  0  0  0  0  0
  136.1800  134.1880  143.9840 C   0  0  0  0  0  2  0  0  0  0  0  0
  136.7110  132.8690  143.4370 C   0  0  0  0  0  2  0  0  0  0  0  0
  136.1630  131.6910  144.2330 C   0  0  0  0  0  2  0  0  0  0  0  0
  136.4130  131.8780  145.7230 C   0  0  0  0  0  2  0  0  0  0  0  0
  135.9140  133.1670  146.1980 N   0  0  0  0  0  0  0  0  0  0  0  0
  135.2290  133.1560  147.4150 C   0  0  0  0  0  0  0  0  0  0  0  0
  134.6780  132.1450  147.8420 O   0  0  0  0  0  0  0  0  0  0  0  0
  135.9630  135.7640  145.9220 C   0  0  0  0  0  2  0  0  0  0  0  0
  136.2510  137.6250  147.4240 C   0  0  0  0  0  1  0  0  0  0  0  0
  136.9070  136.5060  146.7610 N   0  0  0  0  0  4  0  0  0  0  0  0
  137.2900  135.8790  147.4670 H   0  0  0  0  0  0  0  0  0  0  0  0
  137.6490  136.8740  146.1660 H   0  0  0  0  0  0  0  0  0  0  0  0
  133.5650  135.1630  153.4790 C   0  0  0  0  0  2  0  0  0  0  0  0
  134.6470  135.6760  154.2770 N   0  0  0  0  0  0  0  0  0  0  0  0
  134.9200  135.1330  155.5010 C   0  0  0  0  0  0  0  0  0  0  0  0
  134.2910  134.1830  155.9710 O   0  0  0  0  0  0  0  0  0  0  0  0
  135.1950  136.4220  153.9390 H   0  0  0  0  0  0  0  0  0  0  0  0
  136.0560  135.7920  156.2470 C   0  0  0  0  0  2  0  0  0  0  0  0
  137.0800  136.3630  155.2750 C   0  0  0  0  0  2  0  0  0  0  0  0
  138.2650  136.9970  156.0040 C   0  0  0  0  0  2  0  0  0  0  0  0
  138.8740  138.1170  155.1600 C   0  0  0  0  0  2  0  0  0  0  0  0
  138.5720  137.9330  153.7000 C   0  0  0  0  0  3  0  0  0  0  0  0
  139.5100  137.9250  152.7390 C   0  0  0  0  0  3  0  0  0  0  0  0
  139.2090  137.7420  151.2730 C   0  0  0  0  0  3  0  0  0  0  0  0
  138.9160  139.0960  150.6260 C   0  0  0  0  0  1  0  0  0  0  0  0
  140.3770  137.0520  150.5680 C   0  0  0  0  0  1  0  0  0  0  0  0
  1  6  2  0  0  0  0
  1  2  1  0  0  0  0
  2  3  2  0  0  0  0
  3  4  1  0  0  0  0
  4 23  1  0  0  0  0
  5  4  2  0  0  0  0
  6  5  1  0  0  0  0
  7  6  1  0  0  0  0
  8  7  1  0  0  0  0
  9  1  1  0  0  0  0
 10 18  1  1  0  0  0
 10 15  1  0  0  0  0
 11 10  1  0  0  0  0
 12 11  1  0  0  0  0
 12 13  1  0  0  0  0
 13 14  1  0  0  0  0
 14 15  1  0  0  0  0
 15 16  1  0  0  0  0
 16 17  2  0  0  0  0
 16  9  1  0  0  0  0
 18 20  1  0  0  0  0
 20 19  1  0  0  0  0
 20 21  1  0  0  0  0
 22 20  1  0  0  0  0
 23 24  1  0  0  0  0
 24 25  1  0  0  0  0
 25 26  2  0  0  0  0
 25 28  1  0  0  0  0
 27 24  1  0  0  0  0
 29 30  1  0  0  0  0
 29 28  1  0  0  0  0
 31 30  1  0  0  0  0
 32 31  1  0  0  0  0
 33 32  2  0  0  0  0
 34 33  1  0  0  0  0
 35 34  1  0  0  0  0
 36 34  1  0  0  0  0
M  END
>  <MODEL>
5

>  <REMARK>
 VINA RESULT:    -7.520      6.030     10.325
 INTER + INTRA:         -14.930
 INTER:                 -12.964
 INTRA:                  -1.967
 UNBOUND:                -1.696
  Name = CHEMBL4594294
  17 active torsions:
  status: ('A' for Active; 'I' for Inactive)
    1  A    between atoms: C_1  and  N_2
    2  A    between atoms: N_2  and  C_3
    3  A    between atoms: C_3  and  C_4
    4  A    between atoms: C_10  and  O_12
    5  A    between atoms: O_12  and  C_13
    6  A    between atoms: C_16  and  C_17
    7  A    between atoms: C_17  and  N_18
    8  A    between atoms: C_19  and  C_21
    9  A    between atoms: C_21  and  C_22
   10  A    between atoms: C_22  and  C_23
   11  A    between atoms: C_23  and  C_24
   12  A    between atoms: C_24  and  C_25
   13  A    between atoms: C_26  and  C_27
   14  A    between atoms: C_27  and  C_28
   15  A    between atoms: C_27  and  C_29
   16  A    between atoms: C_31  and  O_32
   17  A    between atoms: O_32  and  C_33
                            x       y       z     vdW  Elec       q    Type
                         _______ _______ _______ _____ _____    ______ ____

>  <TORSDO>
F 13

>  <SCORE>
-7.520

>  <RMSD_LB>
6.030

>  <RMSD_UB>
10.325

$$$$
CHEMBL4594294
 OpenBabel10172500343D

 36 37  0  0  1  0  0  0  0  0999 V2000
  138.1880  136.8920  149.7640 C   0  0  0  0  0  0  0  0  0  0  0  0
  137.5450  137.2570  150.9480 C   0  0  0  0  0  3  0  0  0  0  0  0
  138.2870  137.7170  152.0290 C   0  0  0  0  0  3  0  0  0  0  0  0
  139.6700  137.8440  151.9270 C   0  0  0  0  0  0  0  0  0  0  0  0
  140.3030  137.5620  150.7110 C   0  0  0  0  0  3  0  0  0  0  0  0
  139.5830  137.0600  149.6300 C   0  0  0  0  0  0  0  0  0  0  0  0
  140.1940  136.7420  148.4450 O   0  0  0  0  0  0  0  0  0  0  0  0
  140.4610  137.8280  147.5580 C   0  0  0  0  0  1  0  0  0  0  0  0
  137.4920  136.2800  148.7000 O   0  0  0  0  0  0  0  0  0  0  0  0
  134.8320  135.7310  147.7810 C   0  0  2  0  0  3  0  0  0  0  0  0
  133.4200  135.2460  148.1770 C   0  0  0  0  0  2  0  0  0  0  0  0
  133.1190  133.8460  147.6550 C   0  0  0  0  0  2  0  0  0  0  0  0
  134.1920  132.8590  148.0970 C   0  0  0  0  0  2  0  0  0  0  0  0
  135.5790  133.3620  147.7240 C   0  0  0  0  0  2  0  0  0  0  0  0
  135.8150  134.7170  148.2190 N   0  0  0  0  0  0  0  0  0  0  0  0
  137.0640  134.9580  148.7950 C   0  0  0  0  0  0  0  0  0  0  0  0
  137.7430  134.0550  149.2760 O   0  0  0  0  0  0  0  0  0  0  0  0
  134.9940  137.1950  148.2730 C   0  0  0  0  0  2  0  0  0  0  0  0
  135.0020  138.1970  146.0810 C   0  0  0  0  0  1  0  0  0  0  0  0
  135.7130  138.0730  147.3460 N   0  0  0  0  0  4  0  0  0  0  0  0
  135.8070  138.9970  147.7670 H   0  0  0  0  0  0  0  0  0  0  0  0
  136.6300  137.6670  147.1620 H   0  0  0  0  0  0  0  0  0  0  0  0
  140.5020  138.3080  153.0820 C   0  0  0  0  0  2  0  0  0  0  0  0
  139.9710  137.8230  154.3280 N   0  0  0  0  0  0  0  0  0  0  0  0
  140.5380  138.1980  155.5130 C   0  0  0  0  0  0  0  0  0  0  0  0
  141.4940  138.9720  155.5860 O   0  0  0  0  0  0  0  0  0  0  0  0
  139.1930  137.2180  154.3270 H   0  0  0  0  0  0  0  0  0  0  0  0
  139.9050  137.5860  156.7400 C   0  0  0  0  0  2  0  0  0  0  0  0
  138.4060  137.4060  156.5410 C   0  0  0  0  0  2  0  0  0  0  0  0
  138.0030  135.9320  156.5540 C   0  0  0  0  0  2  0  0  0  0  0  0
  136.5200  135.7870  156.9000 C   0  0  0  0  0  2  0  0  0  0  0  0
  135.6880  135.5550  155.6710 C   0  0  0  0  0  3  0  0  0  0  0  0
  136.1620  135.6600  154.4190 C   0  0  0  0  0  3  0  0  0  0  0  0
  135.3290  135.4300  153.1830 C   0  0  0  0  0  3  0  0  0  0  0  0
  135.8560  134.2180  152.4140 C   0  0  0  0  0  1  0  0  0  0  0  0
  133.8600  135.2330  153.5560 C   0  0  0  0  0  1  0  0  0  0  0  0
  1  2  1  0  0  0  0
  2  3  2  0  0  0  0
  4  3  1  0  0  0  0
  4 23  1  0  0  0  0
  5  4  2  0  0  0  0
  6  1  2  0  0  0  0
  6  5  1  0  0  0  0
  7  6  1  0  0  0  0
  8  7  1  0  0  0  0
  9 16  1  0  0  0  0
  9  1  1  0  0  0  0
 10 11  1  0  0  0  0
 10 15  1  0  0  0  0
 10 18  1  1  0  0  0
 12 13  1  0  0  0  0
 12 11  1  0  0  0  0
 14 13  1  0  0  0  0
 14 15  1  0  0  0  0
 15 16  1  0  0  0  0
 16 17  2  0  0  0  0
 19 20  1  0  0  0  0
 20 21  1  0  0  0  0
 20 18  1  0  0  0  0
 22 20  1  0  0  0  0
 23 24  1  0  0  0  0
 24 25  1  0  0  0  0
 25 26  2  0  0  0  0
 25 28  1  0  0  0  0
 27 24  1  0  0  0  0
 29 30  1  0  0  0  0
 29 28  1  0  0  0  0
 30 31  1  0  0  0  0
 32 31  1  0  0  0  0
 33 32  2  0  0  0  0
 34 36  1  0  0  0  0
 34 33  1  0  0  0  0
 35 34  1  0  0  0  0
M  END
>  <MODEL>
6

>  <REMARK>
 VINA RESULT:    -7.489      4.367      8.937
 INTER + INTRA:         -14.877
 INTER:                 -12.441
 INTRA:                  -2.436
 UNBOUND:                -1.696
  Name = CHEMBL4594294
  17 active torsions:
  status: ('A' for Active; 'I' for Inactive)
    1  A    between atoms: C_1  and  N_2
    2  A    between atoms: N_2  and  C_3
    3  A    between atoms: C_3  and  C_4
    4  A    between atoms: C_10  and  O_12
    5  A    between atoms: O_12  and  C_13
    6  A    between atoms: C_16  and  C_17
    7  A    between atoms: C_17  and  N_18
    8  A    between atoms: C_19  and  C_21
    9  A    between atoms: C_21  and  C_22
   10  A    between atoms: C_22  and  C_23
   11  A    between atoms: C_23  and  C_24
   12  A    between atoms: C_24  and  C_25
   13  A    between atoms: C_26  and  C_27
   14  A    between atoms: C_27  and  C_28
   15  A    between atoms: C_27  and  C_29
   16  A    between atoms: C_31  and  O_32
   17  A    between atoms: O_32  and  C_33
                            x       y       z     vdW  Elec       q    Type
                         _______ _______ _______ _____ _____    ______ ____

>  <TORSDO>
F 13

>  <SCORE>
-7.489

>  <RMSD_LB>
4.367

>  <RMSD_UB>
8.937

$$$$
CHEMBL4594294
 OpenBabel10172500343D

 36 37  0  0  1  0  0  0  0  0999 V2000
  143.0760  137.8700  152.8290 C   0  0  0  0  0  0  0  0  0  0  0  0
  142.7930  138.4110  154.0850 C   0  0  0  0  0  3  0  0  0  0  0  0
  141.4770  138.6610  154.4550 C   0  0  0  0  0  3  0  0  0  0  0  0
  140.4330  138.3460  153.5870 C   0  0  0  0  0  0  0  0  0  0  0  0
  140.7140  137.7240  152.3650 C   0  0  0  0  0  3  0  0  0  0  0  0
  142.0260  137.5030  151.9590 C   0  0  0  0  0  0  0  0  0  0  0  0
  142.3180  136.9310  150.7490 O   0  0  0  0  0  0  0  0  0  0  0  0
  141.2600  136.9020  149.7900 C   0  0  0  0  0  1  0  0  0  0  0  0
  144.3990  137.7440  152.3580 O   0  0  0  0  0  0  0  0  0  0  0  0
  145.7700  140.0550  151.3570 C   0  0  2  0  0  3  0  0  0  0  0  0
  147.1060  140.6110  150.8180 C   0  0  0  0  0  2  0  0  0  0  0  0
  147.8050  141.5190  151.8230 C   0  0  0  0  0  2  0  0  0  0  0  0
  147.9950  140.8070  153.1570 C   0  0  0  0  0  2  0  0  0  0  0  0
  146.6760  140.2410  153.6630 C   0  0  0  0  0  2  0  0  0  0  0  0
  146.0260  139.4010  152.6590 N   0  0  0  0  0  0  0  0  0  0  0  0
  145.4730  138.2030  153.1160 C   0  0  0  0  0  0  0  0  0  0  0  0
  145.8680  137.6540  154.1410 O   0  0  0  0  0  0  0  0  0  0  0  0
  145.0990  139.2320  150.2230 C   0  0  0  0  0  2  0  0  0  0  0  0
  143.5930  139.5980  148.3780 C   0  0  0  0  0  1  0  0  0  0  0  0
  143.7780  139.7190  149.8180 N   0  0  0  0  0  4  0  0  0  0  0  0
  143.0600  139.1730  150.2930 H   0  0  0  0  0  0  0  0  0  0  0  0
  143.7050  140.7050  150.0710 H   0  0  0  0  0  0  0  0  0  0  0  0
  139.0060  138.6300  153.9410 C   0  0  0  0  0  2  0  0  0  0  0  0
  138.3220  137.4270  154.3330 N   0  0  0  0  0  0  0  0  0  0  0  0
  137.2460  137.4860  155.1710 C   0  0  0  0  0  0  0  0  0  0  0  0
  136.7910  138.5450  155.6090 O   0  0  0  0  0  0  0  0  0  0  0  0
  138.6330  136.5550  153.9950 H   0  0  0  0  0  0  0  0  0  0  0  0
  136.6480  136.1470  155.5300 C   0  0  0  0  0  2  0  0  0  0  0  0
  135.3990  135.8730  154.7030 C   0  0  0  0  0  2  0  0  0  0  0  0
  135.6950  134.9680  153.5080 C   0  0  0  0  0  2  0  0  0  0  0  0
  134.5240  134.0180  153.2540 C   0  0  0  0  0  2  0  0  0  0  0  0
  133.9600  134.1970  151.8740 C   0  0  0  0  0  3  0  0  0  0  0  0
  133.9490  133.2300  150.9410 C   0  0  0  0  0  3  0  0  0  0  0  0
  133.3850  133.4070  149.5540 C   0  0  0  0  0  3  0  0  0  0  0  0
  133.5710  134.8530  149.0930 C   0  0  0  0  0  1  0  0  0  0  0  0
  134.0540  132.4420  148.5760 C   0  0  0  0  0  1  0  0  0  0  0  0
  1  2  1  0  0  0  0
  2  3  2  0  0  0  0
  4 23  1  0  0  0  0
  4  3  1  0  0  0  0
  5  4  2  0  0  0  0
  6  5  1  0  0  0  0
  6  1  2  0  0  0  0
  7  6  1  0  0  0  0
  8  7  1  0  0  0  0
  9  1  1  0  0  0  0
  9 16  1  0  0  0  0
 10 18  1  6  0  0  0
 10 15  1  0  0  0  0
 11 10  1  0  0  0  0
 11 12  1  0  0  0  0
 12 13  1  0  0  0  0
 13 14  1  0  0  0  0
 15 16  1  0  0  0  0
 15 14  1  0  0  0  0
 16 17  2  0  0  0  0
 19 20  1  0  0  0  0
 20 22  1  0  0  0  0
 20 18  1  0  0  0  0
 20 21  1  0  0  0  0
 23 24  1  0  0  0  0
 24 25  1  0  0  0  0
 25 28  1  0  0  0  0
 25 26  2  0  0  0  0
 27 24  1  0  0  0  0
 29 28  1  0  0  0  0
 30 29  1  0  0  0  0
 31 30  1  0  0  0  0
 32 31  1  0  0  0  0
 33 32  2  0  0  0  0
 34 33  1  0  0  0  0
 35 34  1  0  0  0  0
 36 34  1  0  0  0  0
M  END
>  <MODEL>
7

>  <REMARK>
 VINA RESULT:    -7.487      1.224      2.502
 INTER + INTRA:         -14.873
 INTER:                 -13.391
 INTRA:                  -1.482
 UNBOUND:                -1.696
  Name = CHEMBL4594294
  17 active torsions:
  status: ('A' for Active; 'I' for Inactive)
    1  A    between atoms: C_1  and  N_2
    2  A    between atoms: N_2  and  C_3
    3  A    between atoms: C_3  and  C_4
    4  A    between atoms: C_10  and  O_12
    5  A    between atoms: O_12  and  C_13
    6  A    between atoms: C_16  and  C_17
    7  A    between atoms: C_17  and  N_18
    8  A    between atoms: C_19  and  C_21
    9  A    between atoms: C_21  and  C_22
   10  A    between atoms: C_22  and  C_23
   11  A    between atoms: C_23  and  C_24
   12  A    between atoms: C_24  and  C_25
   13  A    between atoms: C_26  and  C_27
   14  A    between atoms: C_27  and  C_28
   15  A    between atoms: C_27  and  C_29
   16  A    between atoms: C_31  and  O_32
   17  A    between atoms: O_32  and  C_33
                            x       y       z     vdW  Elec       q    Type
                         _______ _______ _______ _____ _____    ______ ____

>  <TORSDO>
F 13

>  <SCORE>
-7.487

>  <RMSD_LB>
1.224

>  <RMSD_UB>
2.502

$$$$
CHEMBL4594294
 OpenBabel10172500343D

 36 37  0  0  1  0  0  0  0  0999 V2000
  146.2280  137.0290  148.6530 C   0  0  0  0  0  0  0  0  0  0  0  0
  146.9940  137.7580  149.5650 C   0  0  0  0  0  3  0  0  0  0  0  0
  146.5590  137.9070  150.8760 C   0  0  0  0  0  3  0  0  0  0  0  0
  145.3720  137.3080  151.2930 C   0  0  0  0  0  0  0  0  0  0  0  0
  144.6510  136.5060  150.4010 C   0  0  0  0  0  3  0  0  0  0  0  0
  145.0480  136.3780  149.0730 C   0  0  0  0  0  0  0  0  0  0  0  0
  144.3310  135.6280  148.1780 O   0  0  0  0  0  0  0  0  0  0  0  0
  143.3330  134.7680  148.7280 C   0  0  0  0  0  1  0  0  0  0  0  0
  146.5560  136.9810  147.2820 O   0  0  0  0  0  0  0  0  0  0  0  0
  148.3110  138.7990  145.9260 C   0  0  2  0  0  3  0  0  0  0  0  0
  149.0380  139.1210  144.6020 C   0  0  0  0  0  2  0  0  0  0  0  0
  150.5380  138.8630  144.6850 C   0  0  0  0  0  2  0  0  0  0  0  0
  150.8190  137.4370  145.1440 C   0  0  0  0  0  2  0  0  0  0  0  0
  150.0750  137.1250  146.4350 C   0  0  0  0  0  2  0  0  0  0  0  0
  148.6470  137.4130  146.3200 N   0  0  0  0  0  0  0  0  0  0  0  0
  147.7770  136.4630  146.8580 C   0  0  0  0  0  0  0  0  0  0  0  0
  148.1070  135.2890  147.0030 O   0  0  0  0  0  0  0  0  0  0  0  0
  146.8170  139.1910  145.7620 C   0  0  0  0  0  2  0  0  0  0  0  0
  144.8500  140.1950  146.7250 C   0  0  0  0  0  1  0  0  0  0  0  0
  146.2970  140.0660  146.8160 N   0  0  0  0  0  4  0  0  0  0  0  0
  146.5400  139.6730  147.7250 H   0  0  0  0  0  0  0  0  0  0  0  0
  146.7130  140.9900  146.7030 H   0  0  0  0  0  0  0  0  0  0  0  0
  144.8590  137.4750  152.6900 C   0  0  0  0  0  2  0  0  0  0  0  0
  145.9330  137.7560  153.6050 N   0  0  0  0  0  0  0  0  0  0  0  0
  145.9050  138.8830  154.3770 C   0  0  0  0  0  0  0  0  0  0  0  0
  144.9740  139.6890  154.3570 O   0  0  0  0  0  0  0  0  0  0  0  0
  146.6930  137.1330  153.6740 H   0  0  0  0  0  0  0  0  0  0  0  0
  147.1140  139.0730  155.2620 C   0  0  0  0  0  2  0  0  0  0  0  0
  148.2610  139.7030  154.4830 C   0  0  0  0  0  2  0  0  0  0  0  0
  148.2220  141.2300  154.5470 C   0  0  0  0  0  2  0  0  0  0  0  0
  148.9080  141.8340  153.3210 C   0  0  0  0  0  2  0  0  0  0  0  0
  147.9670  141.9320  152.1560 C   0  0  0  0  0  3  0  0  0  0  0  0
  146.6830  142.3130  152.2640 C   0  0  0  0  0  3  0  0  0  0  0  0
  145.7340  142.4110  151.0960 C   0  0  0  0  0  3  0  0  0  0  0  0
  146.5210  142.4990  149.7880 C   0  0  0  0  0  1  0  0  0  0  0  0
  144.7870  141.2110  151.0730 C   0  0  0  0  0  1  0  0  0  0  0  0
  1  6  2  0  0  0  0
  1  2  1  0  0  0  0
  2  3  2  0  0  0  0
  3  4  1  0  0  0  0
  4 23  1  0  0  0  0
  5  4  2  0  0  0  0
  6  5  1  0  0  0  0
  7  8  1  0  0  0  0
  7  6  1  0  0  0  0
  9  1  1  0  0  0  0
 10 18  1  6  0  0  0
 10 15  1  0  0  0  0
 11 12  1  0  0  0  0
 11 10  1  0  0  0  0
 12 13  1  0  0  0  0
 13 14  1  0  0  0  0
 15 14  1  0  0  0  0
 15 16  1  0  0  0  0
 16 17  2  0  0  0  0
 16  9  1  0  0  0  0
 18 20  1  0  0  0  0
 19 20  1  0  0  0  0
 20 21  1  0  0  0  0
 22 20  1  0  0  0  0
 23 24  1  0  0  0  0
 24 27  1  0  0  0  0
 24 25  1  0  0  0  0
 25 28  1  0  0  0  0
 26 25  2  0  0  0  0
 29 30  1  0  0  0  0
 29 28  1  0  0  0  0
 31 30  1  0  0  0  0
 32 33  2  0  0  0  0
 32 31  1  0  0  0  0
 34 33  1  0  0  0  0
 35 34  1  0  0  0  0
 36 34  1  0  0  0  0
M  END
>  <MODEL>
8

>  <REMARK>
 VINA RESULT:    -7.318      6.130      9.866
 INTER + INTRA:         -14.576
 INTER:                 -11.848
 INTRA:                  -2.728
 UNBOUND:                -1.696
  Name = CHEMBL4594294
  17 active torsions:
  status: ('A' for Active; 'I' for Inactive)
    1  A    between atoms: C_1  and  N_2
    2  A    between atoms: N_2  and  C_3
    3  A    between atoms: C_3  and  C_4
    4  A    between atoms: C_10  and  O_12
    5  A    between atoms: O_12  and  C_13
    6  A    between atoms: C_16  and  C_17
    7  A    between atoms: C_17  and  N_18
    8  A    between atoms: C_19  and  C_21
    9  A    between atoms: C_21  and  C_22
   10  A    between atoms: C_22  and  C_23
   11  A    between atoms: C_23  and  C_24
   12  A    between atoms: C_24  and  C_25
   13  A    between atoms: C_26  and  C_27
   14  A    between atoms: C_27  and  C_28
   15  A    between atoms: C_27  and  C_29
   16  A    between atoms: C_31  and  O_32
   17  A    between atoms: O_32  and  C_33
                            x       y       z     vdW  Elec       q    Type
                         _______ _______ _______ _____ _____    ______ ____

>  <TORSDO>
F 13

>  <SCORE>
-7.318

>  <RMSD_LB>
6.130

>  <RMSD_UB>
9.866

$$$$
CHEMBL4594294
 OpenBabel10172500343D

 36 37  0  0  1  0  0  0  0  0999 V2000
  141.6460  138.0360  151.5080 C   0  0  0  0  0  0  0  0  0  0  0  0
  140.5710  138.4550  152.2960 C   0  0  0  0  0  3  0  0  0  0  0  0
  139.2690  138.1750  151.9010 C   0  0  0  0  0  3  0  0  0  0  0  0
  139.0300  137.4520  150.7340 C   0  0  0  0  0  0  0  0  0  0  0  0
  140.1100  136.9590  149.9930 C   0  0  0  0  0  3  0  0  0  0  0  0
  141.4200  137.2630  150.3490 C   0  0  0  0  0  0  0  0  0  0  0  0
  142.4870  136.8200  149.6110 O   0  0  0  0  0  0  0  0  0  0  0  0
  142.6690  137.4270  148.3320 C   0  0  0  0  0  1  0  0  0  0  0  0
  142.9700  138.4290  151.7930 O   0  0  0  0  0  0  0  0  0  0  0  0
  145.1150  139.5580  153.3250 C   0  0  2  0  0  3  0  0  0  0  0  0
  145.5610  140.7350  154.2200 C   0  0  0  0  0  2  0  0  0  0  0  0
  146.5330  141.6690  153.5090 C   0  0  0  0  0  2  0  0  0  0  0  0
  145.9480  142.1610  152.1910 C   0  0  0  0  0  2  0  0  0  0  0  0
  145.4880  140.9930  151.3310 C   0  0  0  0  0  2  0  0  0  0  0  0
  144.5820  140.1070  152.0600 N   0  0  0  0  0  0  0  0  0  0  0  0
  143.4570  139.6600  151.3630 C   0  0  0  0  0  0  0  0  0  0  0  0
  142.9950  140.2800  150.4090 O   0  0  0  0  0  0  0  0  0  0  0  0
  144.2140  138.6210  154.1760 C   0  0  0  0  0  2  0  0  0  0  0  0
  146.0040  137.0630  153.7570 C   0  0  0  0  0  1  0  0  0  0  0  0
  144.6100  137.2110  154.1540 N   0  0  0  0  0  4  0  0  0  0  0  0
  144.4850  136.8150  155.0860 H   0  0  0  0  0  0  0  0  0  0  0  0
  144.0270  136.7210  153.4750 H   0  0  0  0  0  0  0  0  0  0  0  0
  137.6390  137.1600  150.2640 C   0  0  0  0  0  2  0  0  0  0  0  0
  137.1900  135.8790  150.7410 N   0  0  0  0  0  0  0  0  0  0  0  0
  135.8800  135.5150  150.6150 C   0  0  0  0  0  0  0  0  0  0  0  0
  135.0320  136.2280  150.0760 O   0  0  0  0  0  0  0  0  0  0  0  0
  137.8320  135.2620  151.1630 H   0  0  0  0  0  0  0  0  0  0  0  0
  135.5400  134.1620  151.1930 C   0  0  0  0  0  2  0  0  0  0  0  0
  135.8420  134.1210  152.6850 C   0  0  0  0  0  2  0  0  0  0  0  0
  135.1890  135.2850  153.4300 C   0  0  0  0  0  2  0  0  0  0  0  0
  136.2470  136.1100  154.1640 C   0  0  0  0  0  2  0  0  0  0  0  0
  136.0780  136.0240  155.6530 C   0  0  0  0  0  3  0  0  0  0  0  0
  137.1010  135.9020  156.5140 C   0  0  0  0  0  3  0  0  0  0  0  0
  136.9340  135.8130  158.0110 C   0  0  0  0  0  3  0  0  0  0  0  0
  136.9610  137.2130  158.6250 C   0  0  0  0  0  1  0  0  0  0  0  0
  135.6310  135.0960  158.3630 C   0  0  0  0  0  1  0  0  0  0  0  0
  1  9  1  0  0  0  0
  1  2  1  0  0  0  0
  3  2  2  0  0  0  0
  4  3  1  0  0  0  0
  5  6  1  0  0  0  0
  5  4  2  0  0  0  0
  6  1  2  0  0  0  0
  7  6  1  0  0  0  0
  8  7  1  0  0  0  0
 10 18  1  1  0  0  0
 10 11  1  0  0  0  0
 12 11  1  0  0  0  0
 13 12  1  0  0  0  0
 14 15  1  0  0  0  0
 14 13  1  0  0  0  0
 15 10  1  0  0  0  0
 16  9  1  0  0  0  0
 16 15  1  0  0  0  0
 17 16  2  0  0  0  0
 19 20  1  0  0  0  0
 20 18  1  0  0  0  0
 20 21  1  0  0  0  0
 22 20  1  0  0  0  0
 23  4  1  0  0  0  0
 23 24  1  0  0  0  0
 24 27  1  0  0  0  0
 25 24  1  0  0  0  0
 25 28  1  0  0  0  0
 26 25  2  0  0  0  0
 28 29  1  0  0  0  0
 29 30  1  0  0  0  0
 30 31  1  0  0  0  0
 31 32  1  0  0  0  0
 32 33  2  0  0  0  0
 33 34  1  0  0  0  0
 34 36  1  0  0  0  0
 34 35  1  0  0  0  0
M  END
>  <MODEL>
9

>  <REMARK>
 VINA RESULT:    -7.206      2.347      4.364
 INTER + INTRA:         -14.379
 INTER:                 -12.683
 INTRA:                  -1.696
 UNBOUND:                -1.696
  Name = CHEMBL4594294
  17 active torsions:
  status: ('A' for Active; 'I' for Inactive)
    1  A    between atoms: C_1  and  N_2
    2  A    between atoms: N_2  and  C_3
    3  A    between atoms: C_3  and  C_4
    4  A    between atoms: C_10  and  O_12
    5  A    between atoms: O_12  and  C_13
    6  A    between atoms: C_16  and  C_17
    7  A    between atoms: C_17  and  N_18
    8  A    between atoms: C_19  and  C_21
    9  A    between atoms: C_21  and  C_22
   10  A    between atoms: C_22  and  C_23
   11  A    between atoms: C_23  and  C_24
   12  A    between atoms: C_24  and  C_25
   13  A    between atoms: C_26  and  C_27
   14  A    between atoms: C_27  and  C_28
   15  A    between atoms: C_27  and  C_29
   16  A    between atoms: C_31  and  O_32
   17  A    between atoms: O_32  and  C_33
                            x       y       z     vdW  Elec       q    Type
                         _______ _______ _______ _____ _____    ______ ____

>  <TORSDO>
F 13

>  <SCORE>
-7.206

>  <RMSD_LB>
2.347

>  <RMSD_UB>
4.364

$$$$
