CHEMBL1088757
 OpenBabel10162523513D

 40 42  0  0  0  0  0  0  0  0999 V2000
  137.2400  136.5440  155.5920 C   0  0  0  0  0  0  0  0  0  0  0  0
  138.2590  136.3380  156.5310 C   0  0  0  0  0  3  0  0  0  0  0  0
  139.4780  137.0140  156.4140 C   0  0  0  0  0  3  0  0  0  0  0  0
  139.7050  137.8920  155.3490 C   0  0  0  0  0  3  0  0  0  0  0  0
  138.7120  138.1090  154.3840 C   0  0  0  0  0  0  0  0  0  0  0  0
  137.4750  137.4460  154.5340 C   0  0  0  0  0  3  0  0  0  0  0  0
  135.9330  135.7810  155.6890 C   0  0  0  0  0  2  0  0  0  0  0  0
  133.9910  135.2290  154.2600 C   0  0  0  0  0  0  0  0  0  0  0  0
  133.1940  135.2230  155.1940 O   0  0  0  0  0  0  0  0  0  0  0  0
  135.3410  135.4860  154.3990 N   0  0  0  0  0  0  0  0  0  0  0  0
  135.9170  135.4670  153.6000 H   0  0  0  0  0  0  0  0  0  0  0  0
  134.4310  134.4030  151.9610 C   0  0  0  0  0  3  0  0  0  0  0  0
  133.5900  134.9590  152.8520 C   0  0  0  0  0  3  0  0  0  0  0  0
  133.3140  134.8020  148.3290 C   0  0  0  0  0  0  0  0  0  0  0  0
  133.5990  135.0950  149.6720 C   0  0  0  0  0  3  0  0  0  0  0  0
  134.0940  134.1110  150.5470 C   0  0  0  0  0  0  0  0  0  0  0  0
  134.3290  132.8280  150.0370 C   0  0  0  0  0  3  0  0  0  0  0  0
  134.0470  132.5170  148.6990 C   0  0  0  0  0  3  0  0  0  0  0  0
  133.5400  133.5030  147.8550 C   0  0  0  0  0  0  0  0  0  0  0  0
  132.7050  137.0540  147.8320 C   0  0  0  0  0  1  0  0  0  0  0  0
  132.8270  135.7010  147.4150 O   0  0  0  0  0  0  0  0  0  0  0  0
  133.2600  133.2060  146.5480 O   0  0  0  0  0  0  0  0  0  0  0  0
  133.0120  133.8880  145.9550 H   0  0  0  0  0  0  0  0  0  0  0  0
  138.9700  139.0060  153.1870 C   0  0  0  0  0  2  0  0  0  0  0  0
  138.4750  138.4370  151.9440 N   0  0  0  0  0  0  0  0  0  0  0  0
  139.2710  137.6430  151.1440 C   0  0  0  0  0  0  0  0  0  0  0  0
  140.4280  137.3460  151.4070 O   0  0  0  0  0  0  0  0  0  0  0  0
  137.5490  138.6220  151.6670 H   0  0  0  0  0  0  0  0  0  0  0  0
  138.5780  137.1740  149.9090 C   0  0  0  0  0  3  0  0  0  0  0  0
  138.5310  135.8720  149.5640 C   0  0  0  0  0  3  0  0  0  0  0  0
  137.8300  135.3630  148.3670 C   0  0  0  0  0  0  0  0  0  0  0  0
  137.9290  134.0120  148.0110 C   0  0  0  0  0  3  0  0  0  0  0  0
  137.2520  133.5160  146.8900 C   0  0  0  0  0  3  0  0  0  0  0  0
  136.4530  134.3610  146.1130 C   0  0  0  0  0  0  0  0  0  0  0  0
  136.3220  135.7090  146.4570 C   0  0  0  0  0  0  0  0  0  0  0  0
  137.0070  136.1880  147.5860 C   0  0  0  0  0  3  0  0  0  0  0  0
  135.8100  133.8360  145.0280 O   0  0  0  0  0  0  0  0  0  0  0  0
  136.3040  133.4700  144.3220 H   0  0  0  0  0  0  0  0  0  0  0  0
  135.5910  136.6830  145.8290 O   0  0  0  0  0  0  0  0  0  0  0  0
  136.2770  137.8260  145.3430 C   0  0  0  0  0  1  0  0  0  0  0  0
  1  7  1  0  0  0  0
  1  2  1  0  0  0  0
  3  2  2  0  0  0  0
  4  3  1  0  0  0  0
  5  6  1  0  0  0  0
  5  4  2  0  0  0  0
  6  1  2  0  0  0  0
  8 10  1  0  0  0  0
  8  9  2  0  0  0  0
 10  7  1  0  0  0  0
 11 10  1  0  0  0  0
 12 13  2  0  0  0  0
 13  8  1  0  0  0  0
 14 15  1  0  0  0  0
 15 16  2  0  0  0  0
 16 12  1  0  0  0  0
 17 16  1  0  0  0  0
 18 17  2  0  0  0  0
 19 14  2  0  0  0  0
 19 18  1  0  0  0  0
 21 20  1  0  0  0  0
 21 14  1  0  0  0  0
 22 19  1  0  0  0  0
 23 22  1  0  0  0  0
 24  5  1  0  0  0  0
 25 24  1  0  0  0  0
 26 27  2  0  0  0  0
 26 25  1  0  0  0  0
 28 25  1  0  0  0  0
 29 26  1  0  0  0  0
 30 29  2  0  0  0  0
 31 30  1  0  0  0  0
 32 31  1  0  0  0  0
 33 32  2  0  0  0  0
 34 35  2  0  0  0  0
 34 33  1  0  0  0  0
 35 36  1  0  0  0  0
 36 31  2  0  0  0  0
 37 34  1  0  0  0  0
 38 37  1  0  0  0  0
 39 35  1  0  0  0  0
 40 39  1  0  0  0  0
M  END
>  <MODEL>
1

>  <REMARK>
 VINA RESULT:    -9.679      0.000      0.000
 INTER + INTRA:         -16.845
 INTER:                 -14.069
 INTRA:                  -2.776
 UNBOUND:                -0.943
  Name = CHEMBL1088757
  14 active torsions:
  status: ('A' for Active; 'I' for Inactive)
    1  A    between atoms: C_1  and  O_2
    2  A    between atoms: O_2  and  C_3
    3  A    between atoms: C_5  and  C_6
    4  A    between atoms: C_7  and  C_8
    5  A    between atoms: N_10  and  C_11
    6  A    between atoms: C_11  and  C_12
    7  A    between atoms: C_16  and  C_17
    8  A    between atoms: C_17  and  N_18
    9  A    between atoms: C_19  and  C_21
   10  A    between atoms: C_22  and  C_23
   11  A    between atoms: C_26  and  O_27
   12  A    between atoms: C_28  and  O_29
   13  A    between atoms: O_29  and  C_30
   14  A    between atoms: C_35  and  O_36
                            x       y       z     vdW  Elec       q    Type
                         _______ _______ _______ _____ _____    ______ ____

>  <TORSDO>
F 12

>  <SCORE>
-9.679

>  <RMSD_LB>
0.000

>  <RMSD_UB>
0.000

$$$$
CHEMBL1088757
 OpenBabel10162523513D

 40 42  0  0  0  0  0  0  0  0999 V2000
  140.1430  138.0430  152.9720 C   0  0  0  0  0  0  0  0  0  0  0  0
  141.2660  138.0950  153.8080 C   0  0  0  0  0  3  0  0  0  0  0  0
  142.5340  137.7700  153.3140 C   0  0  0  0  0  3  0  0  0  0  0  0
  142.6970  137.3710  151.9830 C   0  0  0  0  0  3  0  0  0  0  0  0
  141.5920  137.2930  151.1240 C   0  0  0  0  0  0  0  0  0  0  0  0
  140.3250  137.6570  151.6280 C   0  0  0  0  0  3  0  0  0  0  0  0
  138.7600  138.3530  153.5120 C   0  0  0  0  0  2  0  0  0  0  0  0
  136.9810  136.6430  153.6830 C   0  0  0  0  0  0  0  0  0  0  0  0
  137.1470  136.4650  154.8860 O   0  0  0  0  0  0  0  0  0  0  0  0
  137.7160  137.5350  152.9260 N   0  0  0  0  0  0  0  0  0  0  0  0
  137.5260  137.6170  151.9630 H   0  0  0  0  0  0  0  0  0  0  0  0
  135.8560  136.0400  151.5540 C   0  0  0  0  0  3  0  0  0  0  0  0
  135.9560  135.9110  152.8890 C   0  0  0  0  0  3  0  0  0  0  0  0
  133.3460  135.2580  148.7820 C   0  0  0  0  0  0  0  0  0  0  0  0
  134.2670  135.9490  149.5850 C   0  0  0  0  0  3  0  0  0  0  0  0
  134.8590  135.3420  150.7090 C   0  0  0  0  0  0  0  0  0  0  0  0
  134.5300  134.0110  150.9930 C   0  0  0  0  0  3  0  0  0  0  0  0
  133.6100  133.3060  150.2020 C   0  0  0  0  0  3  0  0  0  0  0  0
  133.0220  133.9340  149.1060 C   0  0  0  0  0  0  0  0  0  0  0  0
  132.7630  137.1880  147.5080 C   0  0  0  0  0  1  0  0  0  0  0  0
  132.7220  135.7780  147.6760 O   0  0  0  0  0  0  0  0  0  0  0  0
  132.1210  133.2530  148.3320 O   0  0  0  0  0  0  0  0  0  0  0  0
  132.0210  132.3270  148.4340 H   0  0  0  0  0  0  0  0  0  0  0  0
  141.7460  136.7960  149.6980 C   0  0  0  0  0  2  0  0  0  0  0  0
  140.4820  136.3910  149.1070 N   0  0  0  0  0  0  0  0  0  0  0  0
  139.9610  137.0330  148.0020 C   0  0  0  0  0  0  0  0  0  0  0  0
  140.5060  137.9670  147.4310 O   0  0  0  0  0  0  0  0  0  0  0  0
  139.9850  135.6390  149.5040 H   0  0  0  0  0  0  0  0  0  0  0  0
  138.6490  136.4740  147.5630 C   0  0  0  0  0  3  0  0  0  0  0  0
  138.5150  135.1950  147.1570 C   0  0  0  0  0  3  0  0  0  0  0  0
  137.2300  134.5940  146.7440 C   0  0  0  0  0  0  0  0  0  0  0  0
  136.8120  133.3750  147.2930 C   0  0  0  0  0  3  0  0  0  0  0  0
  135.5860  132.8080  146.9220 C   0  0  0  0  0  3  0  0  0  0  0  0
  134.7520  133.4570  146.0070 C   0  0  0  0  0  0  0  0  0  0  0  0
  135.1370  134.6840  145.4580 C   0  0  0  0  0  0  0  0  0  0  0  0
  136.3690  135.2380  145.8430 C   0  0  0  0  0  3  0  0  0  0  0  0
  133.5640  132.8690  145.6740 O   0  0  0  0  0  0  0  0  0  0  0  0
  133.3500  132.7210  144.7740 H   0  0  0  0  0  0  0  0  0  0  0  0
  134.4620  135.4660  144.5580 O   0  0  0  0  0  0  0  0  0  0  0  0
  134.8680  136.8180  144.4110 C   0  0  0  0  0  1  0  0  0  0  0  0
  1  7  1  0  0  0  0
  1  2  1  0  0  0  0
  3  2  2  0  0  0  0
  4  3  1  0  0  0  0
  5  6  1  0  0  0  0
  5  4  2  0  0  0  0
  6  1  2  0  0  0  0
  8  9  2  0  0  0  0
 10  7  1  0  0  0  0
 10  8  1  0  0  0  0
 11 10  1  0  0  0  0
 12 13  2  0  0  0  0
 13  8  1  0  0  0  0
 14 19  2  0  0  0  0
 14 15  1  0  0  0  0
 15 16  2  0  0  0  0
 16 17  1  0  0  0  0
 16 12  1  0  0  0  0
 18 17  2  0  0  0  0
 19 18  1  0  0  0  0
 20 21  1  0  0  0  0
 21 14  1  0  0  0  0
 22 23  1  0  0  0  0
 22 19  1  0  0  0  0
 24  5  1  0  0  0  0
 25 28  1  0  0  0  0
 25 24  1  0  0  0  0
 26 25  1  0  0  0  0
 27 26  2  0  0  0  0
 29 26  1  0  0  0  0
 30 29  2  0  0  0  0
 31 30  1  0  0  0  0
 31 32  1  0  0  0  0
 33 32  2  0  0  0  0
 34 33  1  0  0  0  0
 35 36  1  0  0  0  0
 35 34  2  0  0  0  0
 36 31  2  0  0  0  0
 37 34  1  0  0  0  0
 38 37  1  0  0  0  0
 39 35  1  0  0  0  0
 40 39  1  0  0  0  0
M  END
>  <MODEL>
2

>  <REMARK>
 VINA RESULT:    -9.604      2.068      2.962
 INTER + INTRA:         -16.722
 INTER:                 -13.879
 INTRA:                  -2.843
 UNBOUND:                -0.943
  Name = CHEMBL1088757
  14 active torsions:
  status: ('A' for Active; 'I' for Inactive)
    1  A    between atoms: C_1  and  O_2
    2  A    between atoms: O_2  and  C_3
    3  A    between atoms: C_5  and  C_6
    4  A    between atoms: C_7  and  C_8
    5  A    between atoms: N_10  and  C_11
    6  A    between atoms: C_11  and  C_12
    7  A    between atoms: C_16  and  C_17
    8  A    between atoms: C_17  and  N_18
    9  A    between atoms: C_19  and  C_21
   10  A    between atoms: C_22  and  C_23
   11  A    between atoms: C_26  and  O_27
   12  A    between atoms: C_28  and  O_29
   13  A    between atoms: O_29  and  C_30
   14  A    between atoms: C_35  and  O_36
                            x       y       z     vdW  Elec       q    Type
                         _______ _______ _______ _____ _____    ______ ____

>  <TORSDO>
F 12

>  <SCORE>
-9.604

>  <RMSD_LB>
2.068

>  <RMSD_UB>
2.962

$$$$
CHEMBL1088757
 OpenBabel10162523513D

 40 42  0  0  0  0  0  0  0  0999 V2000
  138.9840  138.0970  154.4700 C   0  0  0  0  0  0  0  0  0  0  0  0
  139.7700  138.0800  155.6300 C   0  0  0  0  0  3  0  0  0  0  0  0
  139.3790  137.3250  156.7410 C   0  0  0  0  0  3  0  0  0  0  0  0
  138.1880  136.5910  156.7180 C   0  0  0  0  0  3  0  0  0  0  0  0
  137.3710  136.5990  155.5800 C   0  0  0  0  0  0  0  0  0  0  0  0
  137.7960  137.3370  154.4540 C   0  0  0  0  0  3  0  0  0  0  0  0
  139.3810  138.9460  153.2780 C   0  0  0  0  0  2  0  0  0  0  0  0
  141.7010  138.4550  152.5750 C   0  0  0  0  0  0  0  0  0  0  0  0
  141.3950  137.4270  151.9780 O   0  0  0  0  0  0  0  0  0  0  0  0
  140.7970  139.2590  153.2400 N   0  0  0  0  0  0  0  0  0  0  0  0
  141.1220  140.0670  153.7020 H   0  0  0  0  0  0  0  0  0  0  0  0
  143.5630  139.9160  151.8270 C   0  0  0  0  0  3  0  0  0  0  0  0
  143.0990  138.9620  152.6530 C   0  0  0  0  0  3  0  0  0  0  0  0
  147.3430  140.2310  152.2850 C   0  0  0  0  0  0  0  0  0  0  0  0
  146.0420  139.7050  152.2960 C   0  0  0  0  0  3  0  0  0  0  0  0
  144.9420  140.4610  151.8530 C   0  0  0  0  0  0  0  0  0  0  0  0
  145.1780  141.7520  151.3640 C   0  0  0  0  0  3  0  0  0  0  0  0
  146.4720  142.2950  151.3470 C   0  0  0  0  0  3  0  0  0  0  0  0
  147.5440  141.5340  151.8100 C   0  0  0  0  0  0  0  0  0  0  0  0
  148.3360  138.1730  152.9670 C   0  0  0  0  0  1  0  0  0  0  0  0
  148.4660  139.5630  152.7040 O   0  0  0  0  0  0  0  0  0  0  0  0
  148.8080  142.0590  151.7990 O   0  0  0  0  0  0  0  0  0  0  0  0
  149.5110  141.5810  151.4050 H   0  0  0  0  0  0  0  0  0  0  0  0
  136.0440  135.8630  155.5670 C   0  0  0  0  0  2  0  0  0  0  0  0
  135.7150  135.3250  154.2570 N   0  0  0  0  0  0  0  0  0  0  0  0
  134.7900  134.3120  154.1030 C   0  0  0  0  0  0  0  0  0  0  0  0
  134.1750  133.7980  155.0260 O   0  0  0  0  0  0  0  0  0  0  0  0
  136.1610  135.6930  153.4610 H   0  0  0  0  0  0  0  0  0  0  0  0
  134.6090  133.8950  152.6820 C   0  0  0  0  0  3  0  0  0  0  0  0
  133.9050  134.6350  151.8020 C   0  0  0  0  0  3  0  0  0  0  0  0
  133.7280  134.2730  150.3800 C   0  0  0  0  0  0  0  0  0  0  0  0
  134.0430  132.9830  149.9350 C   0  0  0  0  0  3  0  0  0  0  0  0
  133.8600  132.6240  148.5940 C   0  0  0  0  0  3  0  0  0  0  0  0
  133.3440  133.5460  147.6780 C   0  0  0  0  0  0  0  0  0  0  0  0
  133.0040  134.8350  148.0990 C   0  0  0  0  0  0  0  0  0  0  0  0
  133.1930  135.1760  149.4490 C   0  0  0  0  0  3  0  0  0  0  0  0
  133.1800  133.1540  146.3790 O   0  0  0  0  0  0  0  0  0  0  0  0
  132.8710  132.2910  146.1850 H   0  0  0  0  0  0  0  0  0  0  0  0
  132.4880  135.8670  147.3600 O   0  0  0  0  0  0  0  0  0  0  0  0
  133.3850  136.8480  146.8650 C   0  0  0  0  0  1  0  0  0  0  0  0
  1  2  1  0  0  0  0
  2  3  2  0  0  0  0
  4  3  1  0  0  0  0
  5  4  2  0  0  0  0
  6  1  2  0  0  0  0
  6  5  1  0  0  0  0
  7  1  1  0  0  0  0
  8 13  1  0  0  0  0
  8 10  1  0  0  0  0
  9  8  2  0  0  0  0
 10  7  1  0  0  0  0
 10 11  1  0  0  0  0
 12 16  1  0  0  0  0
 12 13  2  0  0  0  0
 14 15  1  0  0  0  0
 14 21  1  0  0  0  0
 16 15  2  0  0  0  0
 17 16  1  0  0  0  0
 18 17  2  0  0  0  0
 18 19  1  0  0  0  0
 19 14  2  0  0  0  0
 21 20  1  0  0  0  0
 22 19  1  0  0  0  0
 23 22  1  0  0  0  0
 24  5  1  0  0  0  0
 25 24  1  0  0  0  0
 26 25  1  0  0  0  0
 26 27  2  0  0  0  0
 28 25  1  0  0  0  0
 29 26  1  0  0  0  0
 30 29  2  0  0  0  0
 31 30  1  0  0  0  0
 32 31  1  0  0  0  0
 33 32  2  0  0  0  0
 34 35  2  0  0  0  0
 34 33  1  0  0  0  0
 35 36  1  0  0  0  0
 36 31  2  0  0  0  0
 37 34  1  0  0  0  0
 38 37  1  0  0  0  0
 39 35  1  0  0  0  0
 40 39  1  0  0  0  0
M  END
>  <MODEL>
3

>  <REMARK>
 VINA RESULT:    -9.546      4.335      9.201
 INTER + INTRA:         -16.627
 INTER:                 -15.697
 INTRA:                  -0.930
 UNBOUND:                -0.943
  Name = CHEMBL1088757
  14 active torsions:
  status: ('A' for Active; 'I' for Inactive)
    1  A    between atoms: C_1  and  O_2
    2  A    between atoms: O_2  and  C_3
    3  A    between atoms: C_5  and  C_6
    4  A    between atoms: C_7  and  C_8
    5  A    between atoms: N_10  and  C_11
    6  A    between atoms: C_11  and  C_12
    7  A    between atoms: C_16  and  C_17
    8  A    between atoms: C_17  and  N_18
    9  A    between atoms: C_19  and  C_21
   10  A    between atoms: C_22  and  C_23
   11  A    between atoms: C_26  and  O_27
   12  A    between atoms: C_28  and  O_29
   13  A    between atoms: O_29  and  C_30
   14  A    between atoms: C_35  and  O_36
                            x       y       z     vdW  Elec       q    Type
                         _______ _______ _______ _____ _____    ______ ____

>  <TORSDO>
F 12

>  <SCORE>
-9.546

>  <RMSD_LB>
4.335

>  <RMSD_UB>
9.201

$$$$
CHEMBL1088757
 OpenBabel10162523513D

 40 42  0  0  0  0  0  0  0  0999 V2000
  142.4060  136.7150  150.2540 C   0  0  0  0  0  0  0  0  0  0  0  0
  143.4680  136.9110  151.1470 C   0  0  0  0  0  3  0  0  0  0  0  0
  143.2290  137.3950  152.4380 C   0  0  0  0  0  3  0  0  0  0  0  0
  141.9300  137.7080  152.8510 C   0  0  0  0  0  3  0  0  0  0  0  0
  140.8470  137.5380  151.9770 C   0  0  0  0  0  0  0  0  0  0  0  0
  141.0990  137.0160  150.6900 C   0  0  0  0  0  3  0  0  0  0  0  0
  142.6630  136.2310  148.8400 C   0  0  0  0  0  2  0  0  0  0  0  0
  141.0540  136.4680  146.9770 C   0  0  0  0  0  0  0  0  0  0  0  0
  141.6630  137.3970  146.4540 O   0  0  0  0  0  0  0  0  0  0  0  0
  141.4570  135.8380  148.1380 N   0  0  0  0  0  0  0  0  0  0  0  0
  140.9100  135.1020  148.4990 H   0  0  0  0  0  0  0  0  0  0  0  0
  138.9500  135.1620  147.1500 C   0  0  0  0  0  3  0  0  0  0  0  0
  139.7960  135.9040  146.4140 C   0  0  0  0  0  3  0  0  0  0  0  0
  135.5490  134.7420  145.4610 C   0  0  0  0  0  0  0  0  0  0  0  0
  136.7260  135.3290  145.9520 C   0  0  0  0  0  3  0  0  0  0  0  0
  137.6860  134.5720  146.6490 C   0  0  0  0  0  0  0  0  0  0  0  0
  137.4540  133.2010  146.8180 C   0  0  0  0  0  3  0  0  0  0  0  0
  136.2820  132.5990  146.3360 C   0  0  0  0  0  3  0  0  0  0  0  0
  135.3370  133.3730  145.6650 C   0  0  0  0  0  0  0  0  0  0  0  0
  134.9760  136.3240  143.7710 C   0  0  0  0  0  1  0  0  0  0  0  0
  134.5650  135.4090  144.7770 O   0  0  0  0  0  0  0  0  0  0  0  0
  134.1890  132.7920  145.1950 O   0  0  0  0  0  0  0  0  0  0  0  0
  133.3730  133.2480  145.2590 H   0  0  0  0  0  0  0  0  0  0  0  0
  139.4420  137.9380  152.3890 C   0  0  0  0  0  2  0  0  0  0  0  0
  138.4230  137.3890  151.5110 N   0  0  0  0  0  0  0  0  0  0  0  0
  137.9440  138.0960  150.4260 C   0  0  0  0  0  0  0  0  0  0  0  0
  138.3310  139.2120  150.1100 O   0  0  0  0  0  0  0  0  0  0  0  0
  138.0660  136.4900  151.6930 H   0  0  0  0  0  0  0  0  0  0  0  0
  136.8940  137.3600  149.6650 C   0  0  0  0  0  3  0  0  0  0  0  0
  136.1620  136.3750  150.2220 C   0  0  0  0  0  3  0  0  0  0  0  0
  135.0930  135.6430  149.5120 C   0  0  0  0  0  0  0  0  0  0  0  0
  134.9770  134.2530  149.6500 C   0  0  0  0  0  3  0  0  0  0  0  0
  133.9550  133.5530  148.9980 C   0  0  0  0  0  3  0  0  0  0  0  0
  133.0220  134.2320  148.2070 C   0  0  0  0  0  0  0  0  0  0  0  0
  133.1040  135.6200  148.0670 C   0  0  0  0  0  0  0  0  0  0  0  0
  134.1350  136.3060  148.7310 C   0  0  0  0  0  3  0  0  0  0  0  0
  132.0410  133.5100  147.5890 O   0  0  0  0  0  0  0  0  0  0  0  0
  132.1130  132.5770  147.5280 H   0  0  0  0  0  0  0  0  0  0  0  0
  132.2920  136.4550  147.3460 O   0  0  0  0  0  0  0  0  0  0  0  0
  132.8820  137.5790  146.7110 C   0  0  0  0  0  1  0  0  0  0  0  0
  1  6  2  0  0  0  0
  1  2  1  0  0  0  0
  2  3  2  0  0  0  0
  3  4  1  0  0  0  0
  5 24  1  0  0  0  0
  5  4  2  0  0  0  0
  6  5  1  0  0  0  0
  7  1  1  0  0  0  0
  8 10  1  0  0  0  0
  9  8  2  0  0  0  0
 10 11  1  0  0  0  0
 10  7  1  0  0  0  0
 13  8  1  0  0  0  0
 13 12  2  0  0  0  0
 14 19  2  0  0  0  0
 14 15  1  0  0  0  0
 15 16  2  0  0  0  0
 16 17  1  0  0  0  0
 16 12  1  0  0  0  0
 18 17  2  0  0  0  0
 19 18  1  0  0  0  0
 20 21  1  0  0  0  0
 21 14  1  0  0  0  0
 22 23  1  0  0  0  0
 22 19  1  0  0  0  0
 25 28  1  0  0  0  0
 25 24  1  0  0  0  0
 26 25  1  0  0  0  0
 27 26  2  0  0  0  0
 29 30  2  0  0  0  0
 29 26  1  0  0  0  0
 31 32  1  0  0  0  0
 31 30  1  0  0  0  0
 33 32  2  0  0  0  0
 34 33  1  0  0  0  0
 35 34  2  0  0  0  0
 35 36  1  0  0  0  0
 36 31  2  0  0  0  0
 37 34  1  0  0  0  0
 38 37  1  0  0  0  0
 39 35  1  0  0  0  0
 40 39  1  0  0  0  0
M  END
>  <MODEL>
4

>  <REMARK>
 VINA RESULT:    -9.522      2.829      5.346
 INTER + INTRA:         -16.588
 INTER:                 -13.324
 INTRA:                  -3.264
 UNBOUND:                -0.943
  Name = CHEMBL1088757
  14 active torsions:
  status: ('A' for Active; 'I' for Inactive)
    1  A    between atoms: C_1  and  O_2
    2  A    between atoms: O_2  and  C_3
    3  A    between atoms: C_5  and  C_6
    4  A    between atoms: C_7  and  C_8
    5  A    between atoms: N_10  and  C_11
    6  A    between atoms: C_11  and  C_12
    7  A    between atoms: C_16  and  C_17
    8  A    between atoms: C_17  and  N_18
    9  A    between atoms: C_19  and  C_21
   10  A    between atoms: C_22  and  C_23
   11  A    between atoms: C_26  and  O_27
   12  A    between atoms: C_28  and  O_29
   13  A    between atoms: O_29  and  C_30
   14  A    between atoms: C_35  and  O_36
                            x       y       z     vdW  Elec       q    Type
                         _______ _______ _______ _____ _____    ______ ____

>  <TORSDO>
F 12

>  <SCORE>
-9.522

>  <RMSD_LB>
2.829

>  <RMSD_UB>
5.346

$$$$
CHEMBL1088757
 OpenBabel10162523513D

 40 42  0  0  0  0  0  0  0  0999 V2000
  142.2330  137.6800  151.0810 C   0  0  0  0  0  0  0  0  0  0  0  0
  143.5220  137.1330  151.0110 C   0  0  0  0  0  3  0  0  0  0  0  0
  144.3020  137.0050  152.1650 C   0  0  0  0  0  3  0  0  0  0  0  0
  143.8160  137.4400  153.4030 C   0  0  0  0  0  3  0  0  0  0  0  0
  142.5380  138.0060  153.5060 C   0  0  0  0  0  0  0  0  0  0  0  0
  141.7490  138.0960  152.3380 C   0  0  0  0  0  3  0  0  0  0  0  0
  141.4000  137.8590  149.8270 C   0  0  0  0  0  2  0  0  0  0  0  0
  139.7040  136.2300  149.0600 C   0  0  0  0  0  0  0  0  0  0  0  0
  140.4170  135.7740  148.1710 O   0  0  0  0  0  0  0  0  0  0  0  0
  140.0890  137.2450  149.9140 N   0  0  0  0  0  0  0  0  0  0  0  0
  139.4560  137.5610  150.6000 H   0  0  0  0  0  0  0  0  0  0  0  0
  137.6080  136.1470  150.3880 C   0  0  0  0  0  3  0  0  0  0  0  0
  138.3250  135.7360  149.3270 C   0  0  0  0  0  3  0  0  0  0  0  0
  133.7990  135.8610  150.4820 C   0  0  0  0  0  0  0  0  0  0  0  0
  135.0910  136.3260  150.1880 C   0  0  0  0  0  3  0  0  0  0  0  0
  136.2340  135.6930  150.7080 C   0  0  0  0  0  0  0  0  0  0  0  0
  136.0560  134.5570  151.5080 C   0  0  0  0  0  3  0  0  0  0  0  0
  134.7730  134.0790  151.8140 C   0  0  0  0  0  3  0  0  0  0  0  0
  133.6550  134.7350  151.3030 C   0  0  0  0  0  0  0  0  0  0  0  0
  132.6880  137.0830  148.7630 C   0  0  0  0  0  1  0  0  0  0  0  0
  132.6370  136.4230  150.0190 O   0  0  0  0  0  0  0  0  0  0  0  0
  132.3990  134.2760  151.6000 O   0  0  0  0  0  0  0  0  0  0  0  0
  132.2290  133.3540  151.6170 H   0  0  0  0  0  0  0  0  0  0  0  0
  142.0260  138.5430  154.8290 C   0  0  0  0  0  2  0  0  0  0  0  0
  140.8810  137.8020  155.3300 N   0  0  0  0  0  0  0  0  0  0  0  0
  139.5960  138.2940  155.2180 C   0  0  0  0  0  0  0  0  0  0  0  0
  139.3130  139.3610  154.6940 O   0  0  0  0  0  0  0  0  0  0  0  0
  141.0250  136.9270  155.7570 H   0  0  0  0  0  0  0  0  0  0  0  0
  138.5680  137.3860  155.8060 C   0  0  0  0  0  3  0  0  0  0  0  0
  137.3150  137.3090  155.3160 C   0  0  0  0  0  3  0  0  0  0  0  0
  136.2780  136.4020  155.8510 C   0  0  0  0  0  0  0  0  0  0  0  0
  135.3680  135.7810  154.9850 C   0  0  0  0  0  3  0  0  0  0  0  0
  134.3940  134.9050  155.4800 C   0  0  0  0  0  3  0  0  0  0  0  0
  134.3230  134.6230  156.8480 C   0  0  0  0  0  0  0  0  0  0  0  0
  135.2300  135.2150  157.7310 C   0  0  0  0  0  0  0  0  0  0  0  0
  136.2010  136.0900  157.2170 C   0  0  0  0  0  3  0  0  0  0  0  0
  133.3580  133.7620  157.2880 O   0  0  0  0  0  0  0  0  0  0  0  0
  133.5110  133.2350  158.0470 H   0  0  0  0  0  0  0  0  0  0  0  0
  135.3210  135.0640  159.0900 O   0  0  0  0  0  0  0  0  0  0  0  0
  136.5020  135.5140  159.7350 C   0  0  0  0  0  1  0  0  0  0  0  0
  1  6  1  0  0  0  0
  2  1  2  0  0  0  0
  2  3  1  0  0  0  0
  3  4  2  0  0  0  0
  4  5  1  0  0  0  0
  5 24  1  0  0  0  0
  6  5  2  0  0  0  0
  7 10  1  0  0  0  0
  7  1  1  0  0  0  0
  8 13  1  0  0  0  0
  8 10  1  0  0  0  0
  9  8  2  0  0  0  0
 10 11  1  0  0  0  0
 12 16  1  0  0  0  0
 13 12  2  0  0  0  0
 14 19  1  0  0  0  0
 15 14  2  0  0  0  0
 15 16  1  0  0  0  0
 16 17  2  0  0  0  0
 17 18  1  0  0  0  0
 19 22  1  0  0  0  0
 19 18  2  0  0  0  0
 20 21  1  0  0  0  0
 21 14  1  0  0  0  0
 22 23  1  0  0  0  0
 24 25  1  0  0  0  0
 25 28  1  0  0  0  0
 26 25  1  0  0  0  0
 26 29  1  0  0  0  0
 27 26  2  0  0  0  0
 30 29  2  0  0  0  0
 30 31  1  0  0  0  0
 31 36  1  0  0  0  0
 32 33  1  0  0  0  0
 32 31  2  0  0  0  0
 33 34  2  0  0  0  0
 34 37  1  0  0  0  0
 34 35  1  0  0  0  0
 35 39  1  0  0  0  0
 36 35  2  0  0  0  0
 37 38  1  0  0  0  0
 39 40  1  0  0  0  0
M  END
>  <MODEL>
5

>  <REMARK>
 VINA RESULT:    -9.404      2.857      7.162
 INTER + INTRA:         -16.394
 INTER:                 -14.497
 INTRA:                  -1.897
 UNBOUND:                -0.943
  Name = CHEMBL1088757
  14 active torsions:
  status: ('A' for Active; 'I' for Inactive)
    1  A    between atoms: C_1  and  O_2
    2  A    between atoms: O_2  and  C_3
    3  A    between atoms: C_5  and  C_6
    4  A    between atoms: C_7  and  C_8
    5  A    between atoms: N_10  and  C_11
    6  A    between atoms: C_11  and  C_12
    7  A    between atoms: C_16  and  C_17
    8  A    between atoms: C_17  and  N_18
    9  A    between atoms: C_19  and  C_21
   10  A    between atoms: C_22  and  C_23
   11  A    between atoms: C_26  and  O_27
   12  A    between atoms: C_28  and  O_29
   13  A    between atoms: O_29  and  C_30
   14  A    between atoms: C_35  and  O_36
                            x       y       z     vdW  Elec       q    Type
                         _______ _______ _______ _____ _____    ______ ____

>  <TORSDO>
F 12

>  <SCORE>
-9.404

>  <RMSD_LB>
2.857

>  <RMSD_UB>
7.162

$$$$
CHEMBL1088757
 OpenBabel10162523513D

 40 42  0  0  0  0  0  0  0  0999 V2000
  138.3710  137.6750  154.5020 C   0  0  0  0  0  0  0  0  0  0  0  0
  139.0700  137.7070  155.7160 C   0  0  0  0  0  3  0  0  0  0  0  0
  138.5430  137.0890  156.8550 C   0  0  0  0  0  3  0  0  0  0  0  0
  137.3010  136.4460  156.8040 C   0  0  0  0  0  3  0  0  0  0  0  0
  136.5680  136.4090  155.6100 C   0  0  0  0  0  0  0  0  0  0  0  0
  137.1290  137.0070  154.4610 C   0  0  0  0  0  3  0  0  0  0  0  0
  138.9170  138.3790  153.2750 C   0  0  0  0  0  2  0  0  0  0  0  0
  141.1610  137.8360  152.3890 C   0  0  0  0  0  0  0  0  0  0  0  0
  140.7330  137.0690  151.5310 O   0  0  0  0  0  0  0  0  0  0  0  0
  140.3600  138.5170  153.2850 N   0  0  0  0  0  0  0  0  0  0  0  0
  140.7810  139.1110  153.9480 H   0  0  0  0  0  0  0  0  0  0  0  0
  143.3390  137.5710  153.5510 C   0  0  0  0  0  3  0  0  0  0  0  0
  142.6110  138.1260  152.5660 C   0  0  0  0  0  3  0  0  0  0  0  0
  146.6560  139.3100  154.3060 C   0  0  0  0  0  0  0  0  0  0  0  0
  145.2890  139.1020  154.0630 C   0  0  0  0  0  3  0  0  0  0  0  0
  144.7820  137.8200  153.7810 C   0  0  0  0  0  0  0  0  0  0  0  0
  145.6740  136.7400  153.7790 C   0  0  0  0  0  3  0  0  0  0  0  0
  147.0430  136.9300  154.0170 C   0  0  0  0  0  3  0  0  0  0  0  0
  147.5250  138.2110  154.2750 C   0  0  0  0  0  0  0  0  0  0  0  0
  147.3690  141.4400  153.5060 C   0  0  0  0  0  1  0  0  0  0  0  0
  147.2300  140.5250  154.5830 O   0  0  0  0  0  0  0  0  0  0  0  0
  148.8610  138.4040  154.5050 O   0  0  0  0  0  0  0  0  0  0  0  0
  149.4910  137.8220  154.1270 H   0  0  0  0  0  0  0  0  0  0  0  0
  135.1910  135.7750  155.5590 C   0  0  0  0  0  2  0  0  0  0  0  0
  134.8670  135.2440  154.2460 N   0  0  0  0  0  0  0  0  0  0  0  0
  134.4230  133.9470  154.0790 C   0  0  0  0  0  0  0  0  0  0  0  0
  134.2570  133.1560  154.9960 O   0  0  0  0  0  0  0  0  0  0  0  0
  134.9650  135.8230  153.4560 H   0  0  0  0  0  0  0  0  0  0  0  0
  134.1610  133.5970  152.6530 C   0  0  0  0  0  3  0  0  0  0  0  0
  134.3310  134.4860  151.6530 C   0  0  0  0  0  3  0  0  0  0  0  0
  134.1120  134.1700  150.2270 C   0  0  0  0  0  0  0  0  0  0  0  0
  134.2290  132.8520  149.7690 C   0  0  0  0  0  3  0  0  0  0  0  0
  134.0040  132.5390  148.4220 C   0  0  0  0  0  3  0  0  0  0  0  0
  133.6420  133.5390  147.5140 C   0  0  0  0  0  0  0  0  0  0  0  0
  133.5000  134.8600  147.9480 C   0  0  0  0  0  0  0  0  0  0  0  0
  133.7280  135.1540  149.3020 C   0  0  0  0  0  3  0  0  0  0  0  0
  133.4310  133.1900  146.2100 O   0  0  0  0  0  0  0  0  0  0  0  0
  132.7140  132.6300  145.9840 H   0  0  0  0  0  0  0  0  0  0  0  0
  133.1540  135.9660  147.2180 O   0  0  0  0  0  0  0  0  0  0  0  0
  132.6570  137.0990  147.9140 C   0  0  0  0  0  1  0  0  0  0  0  0
  1  2  1  0  0  0  0
  2  3  2  0  0  0  0
  4  3  1  0  0  0  0
  5  4  2  0  0  0  0
  6  1  2  0  0  0  0
  6  5  1  0  0  0  0
  7 10  1  0  0  0  0
  7  1  1  0  0  0  0
  8 13  1  0  0  0  0
  8 10  1  0  0  0  0
  9  8  2  0  0  0  0
 10 11  1  0  0  0  0
 12 16  1  0  0  0  0
 13 12  2  0  0  0  0
 14 21  1  0  0  0  0
 15 14  2  0  0  0  0
 16 15  1  0  0  0  0
 17 16  2  0  0  0  0
 17 18  1  0  0  0  0
 18 19  2  0  0  0  0
 19 14  1  0  0  0  0
 19 22  1  0  0  0  0
 20 21  1  0  0  0  0
 23 22  1  0  0  0  0
 24  5  1  0  0  0  0
 25 24  1  0  0  0  0
 26 25  1  0  0  0  0
 26 27  2  0  0  0  0
 28 25  1  0  0  0  0
 29 26  1  0  0  0  0
 30 29  2  0  0  0  0
 31 30  1  0  0  0  0
 32 31  1  0  0  0  0
 33 32  2  0  0  0  0
 34 35  2  0  0  0  0
 34 33  1  0  0  0  0
 35 36  1  0  0  0  0
 36 31  2  0  0  0  0
 37 34  1  0  0  0  0
 38 37  1  0  0  0  0
 39 40  1  0  0  0  0
 39 35  1  0  0  0  0
M  END
>  <MODEL>
6

>  <REMARK>
 VINA RESULT:    -9.378      3.910      8.856
 INTER + INTRA:         -16.352
 INTER:                 -15.237
 INTRA:                  -1.115
 UNBOUND:                -0.943
  Name = CHEMBL1088757
  14 active torsions:
  status: ('A' for Active; 'I' for Inactive)
    1  A    between atoms: C_1  and  O_2
    2  A    between atoms: O_2  and  C_3
    3  A    between atoms: C_5  and  C_6
    4  A    between atoms: C_7  and  C_8
    5  A    between atoms: N_10  and  C_11
    6  A    between atoms: C_11  and  C_12
    7  A    between atoms: C_16  and  C_17
    8  A    between atoms: C_17  and  N_18
    9  A    between atoms: C_19  and  C_21
   10  A    between atoms: C_22  and  C_23
   11  A    between atoms: C_26  and  O_27
   12  A    between atoms: C_28  and  O_29
   13  A    between atoms: O_29  and  C_30
   14  A    between atoms: C_35  and  O_36
                            x       y       z     vdW  Elec       q    Type
                         _______ _______ _______ _____ _____    ______ ____

>  <TORSDO>
F 12

>  <SCORE>
-9.378

>  <RMSD_LB>
3.910

>  <RMSD_UB>
8.856

$$$$
CHEMBL1088757
 OpenBabel10162523513D

 40 42  0  0  0  0  0  0  0  0999 V2000
  142.5430  138.2710  153.6890 C   0  0  0  0  0  0  0  0  0  0  0  0
  143.7440  137.5510  153.7370 C   0  0  0  0  0  3  0  0  0  0  0  0
  144.2550  136.9450  152.5840 C   0  0  0  0  0  3  0  0  0  0  0  0
  143.5650  137.0320  151.3700 C   0  0  0  0  0  3  0  0  0  0  0  0
  142.3530  137.7320  151.2910 C   0  0  0  0  0  0  0  0  0  0  0  0
  141.8680  138.3670  152.4540 C   0  0  0  0  0  3  0  0  0  0  0  0
  141.9630  138.8940  154.9440 C   0  0  0  0  0  2  0  0  0  0  0  0
  139.5270  138.5530  155.1990 C   0  0  0  0  0  0  0  0  0  0  0  0
  139.2300  139.5210  154.5060 O   0  0  0  0  0  0  0  0  0  0  0  0
  140.8240  138.1680  155.4740 N   0  0  0  0  0  0  0  0  0  0  0  0
  140.9810  137.3810  156.0440 H   0  0  0  0  0  0  0  0  0  0  0  0
  137.5060  137.1120  155.1330 C   0  0  0  0  0  3  0  0  0  0  0  0
  138.5100  137.6680  155.8340 C   0  0  0  0  0  3  0  0  0  0  0  0
  135.3200  135.1940  157.6100 C   0  0  0  0  0  0  0  0  0  0  0  0
  136.3320  136.0160  157.0900 C   0  0  0  0  0  3  0  0  0  0  0  0
  136.4640  136.2260  155.7050 C   0  0  0  0  0  0  0  0  0  0  0  0
  135.5360  135.6180  154.8500 C   0  0  0  0  0  3  0  0  0  0  0  0
  134.5200  134.7930  155.3530 C   0  0  0  0  0  3  0  0  0  0  0  0
  134.4200  134.5840  156.7270 C   0  0  0  0  0  0  0  0  0  0  0  0
  134.6340  135.9970  159.7480 C   0  0  0  0  0  1  0  0  0  0  0  0
  135.1250  134.9350  158.9440 O   0  0  0  0  0  0  0  0  0  0  0  0
  133.4320  133.7760  157.2250 O   0  0  0  0  0  0  0  0  0  0  0  0
  132.6960  134.1540  157.6670 H   0  0  0  0  0  0  0  0  0  0  0  0
  141.5610  137.7760  149.9970 C   0  0  0  0  0  2  0  0  0  0  0  0
  140.3260  137.0130  150.0690 N   0  0  0  0  0  0  0  0  0  0  0  0
  139.7330  136.4880  148.9390 C   0  0  0  0  0  0  0  0  0  0  0  0
  140.1860  136.6050  147.8090 O   0  0  0  0  0  0  0  0  0  0  0  0
  139.9040  136.8660  150.9460 H   0  0  0  0  0  0  0  0  0  0  0  0
  138.4680  135.7530  149.2290 C   0  0  0  0  0  3  0  0  0  0  0  0
  137.5400  136.2320  150.0820 C   0  0  0  0  0  3  0  0  0  0  0  0
  136.2620  135.5500  150.3740 C   0  0  0  0  0  0  0  0  0  0  0  0
  136.1930  134.5790  151.3810 C   0  0  0  0  0  3  0  0  0  0  0  0
  134.9830  133.9420  151.6800 C   0  0  0  0  0  3  0  0  0  0  0  0
  133.8160  134.2760  150.9840 C   0  0  0  0  0  0  0  0  0  0  0  0
  133.8530  135.2540  149.9870 C   0  0  0  0  0  0  0  0  0  0  0  0
  135.0760  135.8840  149.7030 C   0  0  0  0  0  3  0  0  0  0  0  0
  132.6560  133.6310  151.3070 O   0  0  0  0  0  0  0  0  0  0  0  0
  132.2640  133.7630  152.1480 H   0  0  0  0  0  0  0  0  0  0  0  0
  132.8260  135.7160  149.2050 O   0  0  0  0  0  0  0  0  0  0  0  0
  132.9740  136.9860  148.5890 C   0  0  0  0  0  1  0  0  0  0  0  0
  1  2  1  0  0  0  0
  1  7  1  0  0  0  0
  3  2  2  0  0  0  0
  4  3  1  0  0  0  0
  5  4  2  0  0  0  0
  5  6  1  0  0  0  0
  6  1  2  0  0  0  0
  7 10  1  0  0  0  0
  8 10  1  0  0  0  0
  8 13  1  0  0  0  0
  9  8  2  0  0  0  0
 10 11  1  0  0  0  0
 12 16  1  0  0  0  0
 12 13  2  0  0  0  0
 14 21  1  0  0  0  0
 15 14  1  0  0  0  0
 16 15  2  0  0  0  0
 17 18  2  0  0  0  0
 17 16  1  0  0  0  0
 18 19  1  0  0  0  0
 19 22  1  0  0  0  0
 19 14  2  0  0  0  0
 21 20  1  0  0  0  0
 22 23  1  0  0  0  0
 24 25  1  0  0  0  0
 24  5  1  0  0  0  0
 25 28  1  0  0  0  0
 26 29  1  0  0  0  0
 26 25  1  0  0  0  0
 27 26  2  0  0  0  0
 29 30  2  0  0  0  0
 30 31  1  0  0  0  0
 31 32  1  0  0  0  0
 32 33  2  0  0  0  0
 34 37  1  0  0  0  0
 34 33  1  0  0  0  0
 35 34  2  0  0  0  0
 36 35  1  0  0  0  0
 36 31  2  0  0  0  0
 37 38  1  0  0  0  0
 39 35  1  0  0  0  0
 40 39  1  0  0  0  0
M  END
>  <MODEL>
7

>  <REMARK>
 VINA RESULT:    -9.300      2.699      6.333
 INTER + INTRA:         -16.224
 INTER:                 -14.484
 INTRA:                  -1.740
 UNBOUND:                -0.943
  Name = CHEMBL1088757
  14 active torsions:
  status: ('A' for Active; 'I' for Inactive)
    1  A    between atoms: C_1  and  O_2
    2  A    between atoms: O_2  and  C_3
    3  A    between atoms: C_5  and  C_6
    4  A    between atoms: C_7  and  C_8
    5  A    between atoms: N_10  and  C_11
    6  A    between atoms: C_11  and  C_12
    7  A    between atoms: C_16  and  C_17
    8  A    between atoms: C_17  and  N_18
    9  A    between atoms: C_19  and  C_21
   10  A    between atoms: C_22  and  C_23
   11  A    between atoms: C_26  and  O_27
   12  A    between atoms: C_28  and  O_29
   13  A    between atoms: O_29  and  C_30
   14  A    between atoms: C_35  and  O_36
                            x       y       z     vdW  Elec       q    Type
                         _______ _______ _______ _____ _____    ______ ____

>  <TORSDO>
F 12

>  <SCORE>
-9.300

>  <RMSD_LB>
2.699

>  <RMSD_UB>
6.333

$$$$
CHEMBL1088757
 OpenBabel10162523513D

 40 42  0  0  0  0  0  0  0  0999 V2000
  142.7450  137.4810  151.2080 C   0  0  0  0  0  0  0  0  0  0  0  0
  144.0500  137.0450  151.4780 C   0  0  0  0  0  3  0  0  0  0  0  0
  144.5420  137.0460  152.7870 C   0  0  0  0  0  3  0  0  0  0  0  0
  143.7470  137.5000  153.8450 C   0  0  0  0  0  3  0  0  0  0  0  0
  142.4440  137.9580  153.6090 C   0  0  0  0  0  0  0  0  0  0  0  0
  141.9490  137.9180  152.2870 C   0  0  0  0  0  3  0  0  0  0  0  0
  142.2210  137.5230  149.7860 C   0  0  0  0  0  2  0  0  0  0  0  0
  140.1580  137.0490  148.5080 C   0  0  0  0  0  0  0  0  0  0  0  0
  140.4500  137.8050  147.5860 O   0  0  0  0  0  0  0  0  0  0  0  0
  140.9490  136.8460  149.6220 N   0  0  0  0  0  0  0  0  0  0  0  0
  140.6420  136.2260  150.3220 H   0  0  0  0  0  0  0  0  0  0  0  0
  138.6990  135.2020  147.7180 C   0  0  0  0  0  3  0  0  0  0  0  0
  138.9000  136.2520  148.5340 C   0  0  0  0  0  3  0  0  0  0  0  0
  136.1820  132.4520  146.8810 C   0  0  0  0  0  0  0  0  0  0  0  0
  137.3430  133.2410  146.8650 C   0  0  0  0  0  3  0  0  0  0  0  0
  137.4720  134.3710  147.6940 C   0  0  0  0  0  0  0  0  0  0  0  0
  136.4200  134.6760  148.5670 C   0  0  0  0  0  3  0  0  0  0  0  0
  135.2520  133.9000  148.5940 C   0  0  0  0  0  3  0  0  0  0  0  0
  135.1390  132.7970  147.7500 C   0  0  0  0  0  0  0  0  0  0  0  0
  136.2550  131.4570  144.7150 C   0  0  0  0  0  1  0  0  0  0  0  0
  135.9760  131.3410  146.1030 O   0  0  0  0  0  0  0  0  0  0  0  0
  134.0000  132.0370  147.7690 O   0  0  0  0  0  0  0  0  0  0  0  0
  133.1800  132.4270  148.0030 H   0  0  0  0  0  0  0  0  0  0  0  0
  141.5960  138.5170  154.7370 C   0  0  0  0  0  2  0  0  0  0  0  0
  140.3520  137.7870  154.9170 N   0  0  0  0  0  0  0  0  0  0  0  0
  139.1250  138.3950  154.7450 C   0  0  0  0  0  0  0  0  0  0  0  0
  138.9790  139.5660  154.4250 O   0  0  0  0  0  0  0  0  0  0  0  0
  140.3860  136.8350  155.1660 H   0  0  0  0  0  0  0  0  0  0  0  0
  137.9760  137.4760  154.9920 C   0  0  0  0  0  3  0  0  0  0  0  0
  137.6410  137.0630  156.2300 C   0  0  0  0  0  3  0  0  0  0  0  0
  136.4940  136.1780  156.5200 C   0  0  0  0  0  0  0  0  0  0  0  0
  136.1520  135.8750  157.8450 C   0  0  0  0  0  3  0  0  0  0  0  0
  135.0550  135.0540  158.1300 C   0  0  0  0  0  3  0  0  0  0  0  0
  134.2710  134.5330  157.0950 C   0  0  0  0  0  0  0  0  0  0  0  0
  134.5790  134.8340  155.7660 C   0  0  0  0  0  0  0  0  0  0  0  0
  135.6830  135.6610  155.4990 C   0  0  0  0  0  3  0  0  0  0  0  0
  133.2090  133.7360  157.4190 O   0  0  0  0  0  0  0  0  0  0  0  0
  133.2340  132.8200  157.2250 H   0  0  0  0  0  0  0  0  0  0  0  0
  133.9370  134.4250  154.6270 O   0  0  0  0  0  0  0  0  0  0  0  0
  134.6460  134.4890  153.3990 C   0  0  0  0  0  1  0  0  0  0  0  0
  1  2  2  0  0  0  0
  1  6  1  0  0  0  0
  2  3  1  0  0  0  0
  3  4  2  0  0  0  0
  5  4  1  0  0  0  0
  5 24  1  0  0  0  0
  6  5  2  0  0  0  0
  7  1  1  0  0  0  0
  8 13  1  0  0  0  0
  8 10  1  0  0  0  0
  9  8  2  0  0  0  0
 10  7  1  0  0  0  0
 10 11  1  0  0  0  0
 12 13  2  0  0  0  0
 14 19  1  0  0  0  0
 15 14  2  0  0  0  0
 15 16  1  0  0  0  0
 16 12  1  0  0  0  0
 16 17  2  0  0  0  0
 17 18  1  0  0  0  0
 19 22  1  0  0  0  0
 19 18  2  0  0  0  0
 20 21  1  0  0  0  0
 21 14  1  0  0  0  0
 22 23  1  0  0  0  0
 24 25  1  0  0  0  0
 25 28  1  0  0  0  0
 26 25  1  0  0  0  0
 26 29  1  0  0  0  0
 27 26  2  0  0  0  0
 29 30  2  0  0  0  0
 30 31  1  0  0  0  0
 31 32  1  0  0  0  0
 32 33  2  0  0  0  0
 34 37  1  0  0  0  0
 34 33  1  0  0  0  0
 35 34  2  0  0  0  0
 36 35  1  0  0  0  0
 36 31  2  0  0  0  0
 38 37  1  0  0  0  0
 39 35  1  0  0  0  0
 40 39  1  0  0  0  0
M  END
>  <MODEL>
8

>  <REMARK>
 VINA RESULT:    -8.783      2.633      7.107
 INTER + INTRA:         -15.374
 INTER:                 -14.291
 INTRA:                  -1.083
 UNBOUND:                -0.943
  Name = CHEMBL1088757
  14 active torsions:
  status: ('A' for Active; 'I' for Inactive)
    1  A    between atoms: C_1  and  O_2
    2  A    between atoms: O_2  and  C_3
    3  A    between atoms: C_5  and  C_6
    4  A    between atoms: C_7  and  C_8
    5  A    between atoms: N_10  and  C_11
    6  A    between atoms: C_11  and  C_12
    7  A    between atoms: C_16  and  C_17
    8  A    between atoms: C_17  and  N_18
    9  A    between atoms: C_19  and  C_21
   10  A    between atoms: C_22  and  C_23
   11  A    between atoms: C_26  and  O_27
   12  A    between atoms: C_28  and  O_29
   13  A    between atoms: O_29  and  C_30
   14  A    between atoms: C_35  and  O_36
                            x       y       z     vdW  Elec       q    Type
                         _______ _______ _______ _____ _____    ______ ____

>  <TORSDO>
F 12

>  <SCORE>
-8.783

>  <RMSD_LB>
2.633

>  <RMSD_UB>
7.107

$$$$
CHEMBL1088757
 OpenBabel10162523513D

 40 42  0  0  0  0  0  0  0  0999 V2000
  133.0890  134.9230  150.8640 C   0  0  0  0  0  0  0  0  0  0  0  0
  133.1280  136.2910  150.5630 C   0  0  0  0  0  3  0  0  0  0  0  0
  133.0850  136.7280  149.2350 C   0  0  0  0  0  3  0  0  0  0  0  0
  133.0210  135.8040  148.1850 C   0  0  0  0  0  3  0  0  0  0  0  0
  132.9970  134.4280  148.4500 C   0  0  0  0  0  0  0  0  0  0  0  0
  133.0060  134.0050  149.7970 C   0  0  0  0  0  3  0  0  0  0  0  0
  133.1790  134.4430  152.2990 C   0  0  0  0  0  2  0  0  0  0  0  0
  134.3790  135.1850  154.3300 C   0  0  0  0  0  0  0  0  0  0  0  0
  133.3880  135.1070  155.0510 O   0  0  0  0  0  0  0  0  0  0  0  0
  134.3780  134.8880  152.9820 N   0  0  0  0  0  0  0  0  0  0  0  0
  135.2150  134.9810  152.4690 H   0  0  0  0  0  0  0  0  0  0  0  0
  136.3920  136.6380  154.2830 C   0  0  0  0  0  3  0  0  0  0  0  0
  135.7140  135.6140  154.8320 C   0  0  0  0  0  3  0  0  0  0  0  0
  139.8570  138.2450  154.3340 C   0  0  0  0  0  0  0  0  0  0  0  0
  138.6140  137.7810  153.8770 C   0  0  0  0  0  3  0  0  0  0  0  0
  137.7220  137.1110  154.7350 C   0  0  0  0  0  0  0  0  0  0  0  0
  138.0900  136.9450  156.0760 C   0  0  0  0  0  3  0  0  0  0  0  0
  139.3300  137.4010  156.5490 C   0  0  0  0  0  3  0  0  0  0  0  0
  140.2050  138.0440  155.6760 C   0  0  0  0  0  0  0  0  0  0  0  0
  140.6840  138.7480  152.1540 C   0  0  0  0  0  1  0  0  0  0  0  0
  140.7830  138.9010  153.5630 O   0  0  0  0  0  0  0  0  0  0  0  0
  141.4180  138.4890  156.1310 O   0  0  0  0  0  0  0  0  0  0  0  0
  142.1710  138.4480  155.5740 H   0  0  0  0  0  0  0  0  0  0  0  0
  132.9980  133.4160  147.3200 C   0  0  0  0  0  2  0  0  0  0  0  0
  134.0000  133.7060  146.3090 N   0  0  0  0  0  0  0  0  0  0  0  0
  135.1650  132.9710  146.2130 C   0  0  0  0  0  0  0  0  0  0  0  0
  135.4450  132.0300  146.9420 O   0  0  0  0  0  0  0  0  0  0  0  0
  133.8440  134.4430  145.6760 H   0  0  0  0  0  0  0  0  0  0  0  0
  136.0650  133.4400  145.1190 C   0  0  0  0  0  3  0  0  0  0  0  0
  136.3610  132.6680  144.0540 C   0  0  0  0  0  3  0  0  0  0  0  0
  137.2220  133.1060  142.9360 C   0  0  0  0  0  0  0  0  0  0  0  0
  137.7150  132.1710  142.0170 C   0  0  0  0  0  3  0  0  0  0  0  0
  138.5160  132.5780  140.9420 C   0  0  0  0  0  3  0  0  0  0  0  0
  138.8260  133.9300  140.7620 C   0  0  0  0  0  0  0  0  0  0  0  0
  138.3320  134.8850  141.6540 C   0  0  0  0  0  0  0  0  0  0  0  0
  137.5290  134.4580  142.7240 C   0  0  0  0  0  3  0  0  0  0  0  0
  139.6100  134.2830  139.7000 O   0  0  0  0  0  0  0  0  0  0  0  0
  139.5120  133.8440  138.8780 H   0  0  0  0  0  0  0  0  0  0  0  0
  138.5210  136.2420  141.6420 O   0  0  0  0  0  0  0  0  0  0  0  0
  138.7070  136.9020  142.8850 C   0  0  0  0  0  1  0  0  0  0  0  0
  1  7  1  0  0  0  0
  2  1  1  0  0  0  0
  3  2  2  0  0  0  0
  4  5  2  0  0  0  0
  4  3  1  0  0  0  0
  5  6  1  0  0  0  0
  6  1  2  0  0  0  0
  7 10  1  0  0  0  0
  8 13  1  0  0  0  0
  8  9  2  0  0  0  0
 10  8  1  0  0  0  0
 11 10  1  0  0  0  0
 12 16  1  0  0  0  0
 12 13  2  0  0  0  0
 14 19  1  0  0  0  0
 15 14  2  0  0  0  0
 15 16  1  0  0  0  0
 16 17  2  0  0  0  0
 17 18  1  0  0  0  0
 19 22  1  0  0  0  0
 19 18  2  0  0  0  0
 20 21  1  0  0  0  0
 21 14  1  0  0  0  0
 23 22  1  0  0  0  0
 24  5  1  0  0  0  0
 25 24  1  0  0  0  0
 26 25  1  0  0  0  0
 26 27  2  0  0  0  0
 28 25  1  0  0  0  0
 29 26  1  0  0  0  0
 30 29  2  0  0  0  0
 31 30  1  0  0  0  0
 32 31  2  0  0  0  0
 33 32  1  0  0  0  0
 34 33  2  0  0  0  0
 34 35  1  0  0  0  0
 35 36  2  0  0  0  0
 36 31  1  0  0  0  0
 37 34  1  0  0  0  0
 38 37  1  0  0  0  0
 39 35  1  0  0  0  0
 39 40  1  0  0  0  0
M  END
>  <MODEL>
9

>  <REMARK>
 VINA RESULT:    -8.606      3.188      7.517
 INTER + INTRA:         -15.084
 INTER:                 -14.141
 INTRA:                  -0.943
 UNBOUND:                -0.943
  Name = CHEMBL1088757
  14 active torsions:
  status: ('A' for Active; 'I' for Inactive)
    1  A    between atoms: C_1  and  O_2
    2  A    between atoms: O_2  and  C_3
    3  A    between atoms: C_5  and  C_6
    4  A    between atoms: C_7  and  C_8
    5  A    between atoms: N_10  and  C_11
    6  A    between atoms: C_11  and  C_12
    7  A    between atoms: C_16  and  C_17
    8  A    between atoms: C_17  and  N_18
    9  A    between atoms: C_19  and  C_21
   10  A    between atoms: C_22  and  C_23
   11  A    between atoms: C_26  and  O_27
   12  A    between atoms: C_28  and  O_29
   13  A    between atoms: O_29  and  C_30
   14  A    between atoms: C_35  and  O_36
                            x       y       z     vdW  Elec       q    Type
                         _______ _______ _______ _____ _____    ______ ____

>  <TORSDO>
F 12

>  <SCORE>
-8.606

>  <RMSD_LB>
3.188

>  <RMSD_UB>
7.517

$$$$
