CHEMBL1529305
 OpenBabel10172500103D

 25 26  0  0  0  0  0  0  0  0999 V2000
  144.7660  139.2940  153.6610 N   0  0  0  0  0  0  0  0  0  0  0  0
  143.6170  138.9840  154.3520 C   0  0  0  0  0  0  0  0  0  0  0  0
  143.1990  139.6470  155.2930 O   0  0  0  0  0  0  0  0  0  0  0  0
  145.0450  138.7200  152.9120 H   0  0  0  0  0  0  0  0  0  0  0  0
  145.5760  140.4430  154.0070 C   0  0  0  0  0  2  0  0  0  0  0  0
  147.8540  142.1510  151.4620 C   0  0  0  0  0  0  0  0  0  0  0  0
  146.9690  142.3770  150.4070 C   0  0  0  0  0  3  0  0  0  0  0  0
  145.6250  142.0160  150.5340 C   0  0  0  0  0  3  0  0  0  0  0  0
  145.1610  141.4110  151.7020 C   0  0  0  0  0  3  0  0  0  0  0  0
  146.0410  141.1670  152.7680 C   0  0  0  0  0  0  0  0  0  0  0  0
  147.3810  141.5590  152.6390 C   0  0  0  0  0  3  0  0  0  0  0  0
  149.8670  142.3280  152.7120 C   0  0  0  0  0  1  0  0  0  0  0  0
  149.1910  142.4420  151.4680 O   0  0  0  0  0  0  0  0  0  0  0  0
  142.9280  137.7220  153.8590 C   0  0  0  0  0  2  0  0  0  0  0  0
  142.7310  137.7670  152.3470 C   0  0  0  0  0  2  0  0  0  0  0  0
  141.2860  137.6300  151.9300 C   0  0  0  0  0  0  0  0  0  0  0  0
  140.2590  137.9280  152.8260 C   0  0  0  0  0  3  0  0  0  0  0  0
  138.9180  137.8420  152.4320 C   0  0  0  0  0  3  0  0  0  0  0  0
  138.5740  137.4650  151.1270 C   0  0  0  0  0  0  0  0  0  0  0  0
  139.6040  137.1800  150.2140 C   0  0  0  0  0  0  0  0  0  0  0  0
  140.9450  137.2270  150.6320 C   0  0  0  0  0  3  0  0  0  0  0  0
  137.2820  137.3270  150.6950 O   0  0  0  0  0  0  0  0  0  0  0  0
  136.5700  136.1530  151.0530 C   0  0  0  0  0  1  0  0  0  0  0  0
  139.4550  136.8070  148.9000 O   0  0  0  0  0  0  0  0  0  0  0  0
  139.6350  135.4220  148.6150 C   0  0  0  0  0  1  0  0  0  0  0  0
  1  5  1  0  0  0  0
  1  2  1  0  0  0  0
  2  3  2  0  0  0  0
  4  1  1  0  0  0  0
  6 13  1  0  0  0  0
  6 11  1  0  0  0  0
  7  8  1  0  0  0  0
  7  6  2  0  0  0  0
  8  9  2  0  0  0  0
  9 10  1  0  0  0  0
 10  5  1  0  0  0  0
 11 10  2  0  0  0  0
 13 12  1  0  0  0  0
 14  2  1  0  0  0  0
 15 14  1  0  0  0  0
 16 15  1  0  0  0  0
 16 17  1  0  0  0  0
 18 17  2  0  0  0  0
 19 18  1  0  0  0  0
 20 21  1  0  0  0  0
 20 19  2  0  0  0  0
 21 16  2  0  0  0  0
 22 23  1  0  0  0  0
 22 19  1  0  0  0  0
 24 20  1  0  0  0  0
 25 24  1  0  0  0  0
M  END
>  <MODEL>
1

>  <REMARK>
 VINA RESULT:    -5.979      0.000      0.000
 INTER + INTRA:         -10.757
 INTER:                  -9.959
 INTRA:                  -0.798
 UNBOUND:                -1.982
  Name = CHEMBL1529305
  11 active torsions:
  status: ('A' for Active; 'I' for Inactive)
    1  A    between atoms: C_1  and  O_2
    2  A    between atoms: O_2  and  C_3
    3  A    between atoms: C_7  and  C_8
    4  A    between atoms: C_8  and  N_9
    5  A    between atoms: C_10  and  C_12
    6  A    between atoms: C_12  and  C_13
    7  A    between atoms: C_13  and  C_14
    8  A    between atoms: C_17  and  O_18
    9  A    between atoms: O_18  and  C_19
   10  A    between atoms: C_20  and  O_21
   11  A    between atoms: O_21  and  C_22
                            x       y       z     vdW  Elec       q    Type
                         _______ _______ _______ _____ _____    ______ ____

>  <TORSDO>
F 8

>  <SCORE>
-5.979

>  <RMSD_LB>
0.000

>  <RMSD_UB>
0.000

$$$$
CHEMBL1529305
 OpenBabel10172500103D

 25 26  0  0  0  0  0  0  0  0999 V2000
  138.4050  137.7450  151.0090 N   0  0  0  0  0  0  0  0  0  0  0  0
  139.7190  137.3750  150.8390 C   0  0  0  0  0  0  0  0  0  0  0  0
  140.1490  136.8780  149.8060 O   0  0  0  0  0  0  0  0  0  0  0  0
  138.1250  138.1420  151.8650 H   0  0  0  0  0  0  0  0  0  0  0  0
  137.4220  137.5680  149.9610 C   0  0  0  0  0  2  0  0  0  0  0  0
  135.0800  134.5970  149.4410 C   0  0  0  0  0  0  0  0  0  0  0  0
  134.9960  134.0820  150.7350 C   0  0  0  0  0  3  0  0  0  0  0  0
  135.6630  134.7190  151.7850 C   0  0  0  0  0  3  0  0  0  0  0  0
  136.4300  135.8590  151.5480 C   0  0  0  0  0  3  0  0  0  0  0  0
  136.5340  136.3830  150.2500 C   0  0  0  0  0  0  0  0  0  0  0  0
  135.8380  135.7500  149.2110 C   0  0  0  0  0  3  0  0  0  0  0  0
  133.6180  132.9650  148.5200 C   0  0  0  0  0  1  0  0  0  0  0  0
  134.4910  134.0690  148.3250 O   0  0  0  0  0  0  0  0  0  0  0  0
  140.5850  137.6110  152.0660 C   0  0  0  0  0  2  0  0  0  0  0  0
  140.0220  138.7450  152.9170 C   0  0  0  0  0  2  0  0  0  0  0  0
  139.4530  138.2740  154.2350 C   0  0  0  0  0  0  0  0  0  0  0  0
  140.2870  138.0680  155.3340 C   0  0  0  0  0  3  0  0  0  0  0  0
  139.7590  137.6710  156.5690 C   0  0  0  0  0  3  0  0  0  0  0  0
  138.3810  137.4810  156.7340 C   0  0  0  0  0  0  0  0  0  0  0  0
  137.5330  137.7030  155.6360 C   0  0  0  0  0  0  0  0  0  0  0  0
  138.0770  138.0590  154.3900 C   0  0  0  0  0  3  0  0  0  0  0  0
  137.8110  137.0580  157.9050 O   0  0  0  0  0  0  0  0  0  0  0  0
  137.8300  137.9340  159.0230 C   0  0  0  0  0  1  0  0  0  0  0  0
  136.1650  137.5760  155.6170 O   0  0  0  0  0  0  0  0  0  0  0  0
  135.6570  136.2920  155.2630 C   0  0  0  0  0  1  0  0  0  0  0  0
  1  4  1  0  0  0  0
  2  1  1  0  0  0  0
  2 14  1  0  0  0  0
  3  2  2  0  0  0  0
  5 10  1  0  0  0  0
  5  1  1  0  0  0  0
  6  7  1  0  0  0  0
  7  8  2  0  0  0  0
  9  8  1  0  0  0  0
 10  9  2  0  0  0  0
 11  6  2  0  0  0  0
 11 10  1  0  0  0  0
 13 12  1  0  0  0  0
 13  6  1  0  0  0  0
 14 15  1  0  0  0  0
 15 16  1  0  0  0  0
 16 21  2  0  0  0  0
 16 17  1  0  0  0  0
 17 18  2  0  0  0  0
 18 19  1  0  0  0  0
 19 22  1  0  0  0  0
 20 19  2  0  0  0  0
 21 20  1  0  0  0  0
 22 23  1  0  0  0  0
 24 20  1  0  0  0  0
 25 24  1  0  0  0  0
M  END
>  <MODEL>
2

>  <REMARK>
 VINA RESULT:    -5.835      5.519      9.697
 INTER + INTRA:         -10.546
 INTER:                  -9.590
 INTRA:                  -0.955
 UNBOUND:                -1.982
  Name = CHEMBL1529305
  11 active torsions:
  status: ('A' for Active; 'I' for Inactive)
    1  A    between atoms: C_1  and  O_2
    2  A    between atoms: O_2  and  C_3
    3  A    between atoms: C_7  and  C_8
    4  A    between atoms: C_8  and  N_9
    5  A    between atoms: C_10  and  C_12
    6  A    between atoms: C_12  and  C_13
    7  A    between atoms: C_13  and  C_14
    8  A    between atoms: C_17  and  O_18
    9  A    between atoms: O_18  and  C_19
   10  A    between atoms: C_20  and  O_21
   11  A    between atoms: O_21  and  C_22
                            x       y       z     vdW  Elec       q    Type
                         _______ _______ _______ _____ _____    ______ ____

>  <TORSDO>
F 8

>  <SCORE>
-5.835

>  <RMSD_LB>
5.519

>  <RMSD_UB>
9.697

$$$$
CHEMBL1529305
 OpenBabel10172500103D

 25 26  0  0  0  0  0  0  0  0999 V2000
  134.4010  133.9620  146.5230 N   0  0  0  0  0  0  0  0  0  0  0  0
  133.5390  134.6290  147.3620 C   0  0  0  0  0  0  0  0  0  0  0  0
  133.3290  135.8340  147.2900 O   0  0  0  0  0  0  0  0  0  0  0  0
  134.5220  132.9910  146.6330 H   0  0  0  0  0  0  0  0  0  0  0  0
  135.1340  134.6500  145.4810 C   0  0  0  0  0  2  0  0  0  0  0  0
  137.3510  133.2350  142.7120 C   0  0  0  0  0  0  0  0  0  0  0  0
  137.2920  131.8680  142.9830 C   0  0  0  0  0  3  0  0  0  0  0  0
  136.5030  131.3980  144.0360 C   0  0  0  0  0  3  0  0  0  0  0  0
  135.7840  132.2880  144.8340 C   0  0  0  0  0  3  0  0  0  0  0  0
  135.8410  133.6670  144.5810 C   0  0  0  0  0  0  0  0  0  0  0  0
  136.6150  134.1230  143.5050 C   0  0  0  0  0  3  0  0  0  0  0  0
  138.4720  135.1820  141.9370 C   0  0  0  0  0  1  0  0  0  0  0  0
  138.0890  133.8300  141.7260 O   0  0  0  0  0  0  0  0  0  0  0  0
  132.8920  133.7380  148.4100 C   0  0  0  0  0  2  0  0  0  0  0  0
  133.9490  133.0970  149.3040 C   0  0  0  0  0  2  0  0  0  0  0  0
  134.7060  134.1000  150.1440 C   0  0  0  0  0  0  0  0  0  0  0  0
  136.0290  134.4230  149.8410 C   0  0  0  0  0  3  0  0  0  0  0  0
  136.7210  135.3810  150.5920 C   0  0  0  0  0  3  0  0  0  0  0  0
  136.1000  136.0480  151.6560 C   0  0  0  0  0  0  0  0  0  0  0  0
  134.7610  135.7410  151.9550 C   0  0  0  0  0  0  0  0  0  0  0  0
  134.0900  134.7460  151.2230 C   0  0  0  0  0  3  0  0  0  0  0  0
  136.7350  136.9670  152.4470 O   0  0  0  0  0  0  0  0  0  0  0  0
  138.0100  137.4420  152.0430 C   0  0  0  0  0  1  0  0  0  0  0  0
  133.9940  136.2990  152.9480 O   0  0  0  0  0  0  0  0  0  0  0  0
  133.9300  135.5750  154.1750 C   0  0  0  0  0  1  0  0  0  0  0  0
  1  4  1  0  0  0  0
  1  2  1  0  0  0  0
  2 14  1  0  0  0  0
  3  2  2  0  0  0  0
  5  1  1  0  0  0  0
  6  7  2  0  0  0  0
  6 11  1  0  0  0  0
  7  8  1  0  0  0  0
  8  9  2  0  0  0  0
 10  9  1  0  0  0  0
 10  5  1  0  0  0  0
 11 10  2  0  0  0  0
 13 12  1  0  0  0  0
 13  6  1  0  0  0  0
 14 15  1  0  0  0  0
 15 16  1  0  0  0  0
 16 21  1  0  0  0  0
 17 16  2  0  0  0  0
 17 18  1  0  0  0  0
 18 19  2  0  0  0  0
 19 20  1  0  0  0  0
 19 22  1  0  0  0  0
 20 24  1  0  0  0  0
 21 20  2  0  0  0  0
 23 22  1  0  0  0  0
 24 25  1  0  0  0  0
M  END
>  <MODEL>
3

>  <REMARK>
 VINA RESULT:    -5.795      7.597     11.861
 INTER + INTRA:         -10.487
 INTER:                  -9.712
 INTRA:                  -0.775
 UNBOUND:                -1.982
  Name = CHEMBL1529305
  11 active torsions:
  status: ('A' for Active; 'I' for Inactive)
    1  A    between atoms: C_1  and  O_2
    2  A    between atoms: O_2  and  C_3
    3  A    between atoms: C_7  and  C_8
    4  A    between atoms: C_8  and  N_9
    5  A    between atoms: C_10  and  C_12
    6  A    between atoms: C_12  and  C_13
    7  A    between atoms: C_13  and  C_14
    8  A    between atoms: C_17  and  O_18
    9  A    between atoms: O_18  and  C_19
   10  A    between atoms: C_20  and  O_21
   11  A    between atoms: O_21  and  C_22
                            x       y       z     vdW  Elec       q    Type
                         _______ _______ _______ _____ _____    ______ ____

>  <TORSDO>
F 8

>  <SCORE>
-5.795

>  <RMSD_LB>
7.597

>  <RMSD_UB>
11.861

$$$$
CHEMBL1529305
 OpenBabel10172500103D

 25 26  0  0  0  0  0  0  0  0999 V2000
  137.9410  137.6950  153.5450 N   0  0  0  0  0  0  0  0  0  0  0  0
  138.8760  138.1470  152.6440 C   0  0  0  0  0  0  0  0  0  0  0  0
  139.6290  139.0860  152.8710 O   0  0  0  0  0  0  0  0  0  0  0  0
  137.3670  136.9320  153.3000 H   0  0  0  0  0  0  0  0  0  0  0  0
  137.7780  138.3080  154.8470 C   0  0  0  0  0  2  0  0  0  0  0  0
  136.7520  136.6480  158.1290 C   0  0  0  0  0  0  0  0  0  0  0  0
  135.8860  135.6520  157.6770 C   0  0  0  0  0  3  0  0  0  0  0  0
  135.6650  135.4890  156.3060 C   0  0  0  0  0  3  0  0  0  0  0  0
  136.2910  136.3280  155.3840 C   0  0  0  0  0  3  0  0  0  0  0  0
  137.1560  137.3420  155.8230 C   0  0  0  0  0  0  0  0  0  0  0  0
  137.3900  137.4770  157.1990 C   0  0  0  0  0  3  0  0  0  0  0  0
  137.8800  138.0500  159.6820 C   0  0  0  0  0  1  0  0  0  0  0  0
  137.0470  136.9260  159.4360 O   0  0  0  0  0  0  0  0  0  0  0  0
  138.8670  137.3950  151.3220 C   0  0  0  0  0  2  0  0  0  0  0  0
  137.6840  137.8260  150.4610 C   0  0  0  0  0  2  0  0  0  0  0  0
  136.6890  136.7160  150.2180 C   0  0  0  0  0  0  0  0  0  0  0  0
  136.7150  135.5590  150.9970 C   0  0  0  0  0  3  0  0  0  0  0  0
  135.7690  134.5440  150.8030 C   0  0  0  0  0  3  0  0  0  0  0  0
  134.7670  134.6710  149.8310 C   0  0  0  0  0  0  0  0  0  0  0  0
  134.7240  135.8420  149.0550 C   0  0  0  0  0  0  0  0  0  0  0  0
  135.7040  136.8340  149.2280 C   0  0  0  0  0  3  0  0  0  0  0  0
  133.8390  133.6990  149.5710 O   0  0  0  0  0  0  0  0  0  0  0  0
  132.6190  133.7160  150.2970 C   0  0  0  0  0  1  0  0  0  0  0  0
  133.8140  136.1410  148.0710 O   0  0  0  0  0  0  0  0  0  0  0  0
  132.7280  136.9830  148.4520 C   0  0  0  0  0  1  0  0  0  0  0  0
  1  5  1  0  0  0  0
  2  3  2  0  0  0  0
  2  1  1  0  0  0  0
  4  1  1  0  0  0  0
  5 10  1  0  0  0  0
  6 13  1  0  0  0  0
  7  6  1  0  0  0  0
  8  7  2  0  0  0  0
  9 10  2  0  0  0  0
  9  8  1  0  0  0  0
 10 11  1  0  0  0  0
 11  6  2  0  0  0  0
 13 12  1  0  0  0  0
 14  2  1  0  0  0  0
 15 14  1  0  0  0  0
 16 15  1  0  0  0  0
 16 17  1  0  0  0  0
 18 17  2  0  0  0  0
 19 18  1  0  0  0  0
 20 21  1  0  0  0  0
 20 19  2  0  0  0  0
 21 16  2  0  0  0  0
 22 19  1  0  0  0  0
 22 23  1  0  0  0  0
 24 25  1  0  0  0  0
 24 20  1  0  0  0  0
M  END
>  <MODEL>
4

>  <REMARK>
 VINA RESULT:    -5.720      6.228      8.894
 INTER + INTRA:         -10.377
 INTER:                  -9.527
 INTRA:                  -0.850
 UNBOUND:                -1.982
  Name = CHEMBL1529305
  11 active torsions:
  status: ('A' for Active; 'I' for Inactive)
    1  A    between atoms: C_1  and  O_2
    2  A    between atoms: O_2  and  C_3
    3  A    between atoms: C_7  and  C_8
    4  A    between atoms: C_8  and  N_9
    5  A    between atoms: C_10  and  C_12
    6  A    between atoms: C_12  and  C_13
    7  A    between atoms: C_13  and  C_14
    8  A    between atoms: C_17  and  O_18
    9  A    between atoms: O_18  and  C_19
   10  A    between atoms: C_20  and  O_21
   11  A    between atoms: O_21  and  C_22
                            x       y       z     vdW  Elec       q    Type
                         _______ _______ _______ _____ _____    ______ ____

>  <TORSDO>
F 8

>  <SCORE>
-5.720

>  <RMSD_LB>
6.228

>  <RMSD_UB>
8.894

$$$$
CHEMBL1529305
 OpenBabel10172500103D

 25 26  0  0  0  0  0  0  0  0999 V2000
  144.9520  138.5900  150.7070 N   0  0  0  0  0  0  0  0  0  0  0  0
  144.8910  137.2740  150.3090 C   0  0  0  0  0  0  0  0  0  0  0  0
  145.8290  136.6860  149.7870 O   0  0  0  0  0  0  0  0  0  0  0  0
  144.1610  139.0030  151.1240 H   0  0  0  0  0  0  0  0  0  0  0  0
  146.1490  139.3840  150.5300 C   0  0  0  0  0  2  0  0  0  0  0  0
  147.4700  140.4640  153.9460 C   0  0  0  0  0  0  0  0  0  0  0  0
  147.0890  141.8050  153.9790 C   0  0  0  0  0  3  0  0  0  0  0  0
  146.3680  142.3520  152.9140 C   0  0  0  0  0  3  0  0  0  0  0  0
  146.0390  141.5710  151.8060 C   0  0  0  0  0  3  0  0  0  0  0  0
  146.4250  140.2220  151.7530 C   0  0  0  0  0  0  0  0  0  0  0  0
  147.1240  139.6790  152.8400 C   0  0  0  0  0  3  0  0  0  0  0  0
  147.7920  138.4740  155.2050 C   0  0  0  0  0  1  0  0  0  0  0  0
  148.1860  139.8070  154.9090 O   0  0  0  0  0  0  0  0  0  0  0  0
  143.5380  136.6240  150.5500 C   0  0  0  0  0  2  0  0  0  0  0  0
  142.7760  137.3510  151.6540 C   0  0  0  0  0  2  0  0  0  0  0  0
  141.2810  137.3690  151.4320 C   0  0  0  0  0  0  0  0  0  0  0  0
  140.7410  136.9620  150.2120 C   0  0  0  0  0  3  0  0  0  0  0  0
  139.3550  136.9390  150.0150 C   0  0  0  0  0  3  0  0  0  0  0  0
  138.4760  137.3120  151.0410 C   0  0  0  0  0  0  0  0  0  0  0  0
  139.0130  137.7060  152.2790 C   0  0  0  0  0  0  0  0  0  0  0  0
  140.4060  137.7680  152.4510 C   0  0  0  0  0  3  0  0  0  0  0  0
  137.1150  137.3450  150.8970 O   0  0  0  0  0  0  0  0  0  0  0  0
  136.3950  136.1240  150.9880 C   0  0  0  0  0  1  0  0  0  0  0  0
  138.3080  138.0930  153.3930 O   0  0  0  0  0  0  0  0  0  0  0  0
  139.0080  138.9100  154.3280 C   0  0  0  0  0  1  0  0  0  0  0  0
  1  4  1  0  0  0  0
  2 14  1  0  0  0  0
  2  1  1  0  0  0  0
  3  2  2  0  0  0  0
  5  1  1  0  0  0  0
  5 10  1  0  0  0  0
  6  7  1  0  0  0  0
  6 13  1  0  0  0  0
  8  7  2  0  0  0  0
  9  8  1  0  0  0  0
 10  9  2  0  0  0  0
 10 11  1  0  0  0  0
 11  6  2  0  0  0  0
 13 12  1  0  0  0  0
 14 15  1  0  0  0  0
 16 15  1  0  0  0  0
 16 21  1  0  0  0  0
 17 16  2  0  0  0  0
 18 17  1  0  0  0  0
 18 19  2  0  0  0  0
 19 20  1  0  0  0  0
 20 21  2  0  0  0  0
 20 24  1  0  0  0  0
 22 23  1  0  0  0  0
 22 19  1  0  0  0  0
 24 25  1  0  0  0  0
M  END
>  <MODEL>
5

>  <REMARK>
 VINA RESULT:    -5.696      2.323      3.389
 INTER + INTRA:         -10.342
 INTER:                  -9.614
 INTRA:                  -0.728
 UNBOUND:                -1.982
  Name = CHEMBL1529305
  11 active torsions:
  status: ('A' for Active; 'I' for Inactive)
    1  A    between atoms: C_1  and  O_2
    2  A    between atoms: O_2  and  C_3
    3  A    between atoms: C_7  and  C_8
    4  A    between atoms: C_8  and  N_9
    5  A    between atoms: C_10  and  C_12
    6  A    between atoms: C_12  and  C_13
    7  A    between atoms: C_13  and  C_14
    8  A    between atoms: C_17  and  O_18
    9  A    between atoms: O_18  and  C_19
   10  A    between atoms: C_20  and  O_21
   11  A    between atoms: O_21  and  C_22
                            x       y       z     vdW  Elec       q    Type
                         _______ _______ _______ _____ _____    ______ ____

>  <TORSDO>
F 8

>  <SCORE>
-5.696

>  <RMSD_LB>
2.323

>  <RMSD_UB>
3.389

$$$$
CHEMBL1529305
 OpenBabel10172500103D

 25 26  0  0  0  0  0  0  0  0999 V2000
  144.2380  138.1510  154.5170 N   0  0  0  0  0  0  0  0  0  0  0  0
  145.4100  138.8650  154.4160 C   0  0  0  0  0  0  0  0  0  0  0  0
  145.4460  140.0750  154.2320 O   0  0  0  0  0  0  0  0  0  0  0  0
  144.2800  137.1790  154.6680 H   0  0  0  0  0  0  0  0  0  0  0  0
  142.9450  138.7920  154.4090 C   0  0  0  0  0  2  0  0  0  0  0  0
  139.9840  137.8070  152.2080 C   0  0  0  0  0  0  0  0  0  0  0  0
  140.6330  137.2470  151.1070 C   0  0  0  0  0  3  0  0  0  0  0  0
  142.0270  137.1500  151.0930 C   0  0  0  0  0  3  0  0  0  0  0  0
  142.7810  137.6250  152.1660 C   0  0  0  0  0  3  0  0  0  0  0  0
  142.1440  138.2010  153.2760 C   0  0  0  0  0  0  0  0  0  0  0  0
  140.7440  138.2680  153.2890 C   0  0  0  0  0  3  0  0  0  0  0  0
  137.8030  137.3130  151.4030 C   0  0  0  0  0  1  0  0  0  0  0  0
  138.6340  137.9750  152.3470 O   0  0  0  0  0  0  0  0  0  0  0  0
  146.6610  138.0070  154.5220 C   0  0  0  0  0  2  0  0  0  0  0  0
  147.5250  138.1520  153.2720 C   0  0  0  0  0  2  0  0  0  0  0  0
  146.8280  137.6960  152.0110 C   0  0  0  0  0  0  0  0  0  0  0  0
  146.4950  136.3540  151.8320 C   0  0  0  0  0  3  0  0  0  0  0  0
  145.8130  135.9330  150.6830 C   0  0  0  0  0  3  0  0  0  0  0  0
  145.4390  136.8490  149.6920 C   0  0  0  0  0  0  0  0  0  0  0  0
  145.7570  138.2070  149.8740 C   0  0  0  0  0  0  0  0  0  0  0  0
  146.4790  138.6110  151.0100 C   0  0  0  0  0  3  0  0  0  0  0  0
  144.8040  136.4930  148.5320 O   0  0  0  0  0  0  0  0  0  0  0  0
  144.7180  135.1140  148.2040 C   0  0  0  0  0  1  0  0  0  0  0  0
  145.4620  139.2400  149.0180 O   0  0  0  0  0  0  0  0  0  0  0  0
  146.4180  140.2960  148.9530 C   0  0  0  0  0  1  0  0  0  0  0  0
  1  4  1  0  0  0  0
  2  1  1  0  0  0  0
  2 14  1  0  0  0  0
  3  2  2  0  0  0  0
  5  1  1  0  0  0  0
  6 13  1  0  0  0  0
  6 11  1  0  0  0  0
  7  6  2  0  0  0  0
  8  7  1  0  0  0  0
  8  9  2  0  0  0  0
  9 10  1  0  0  0  0
 10 11  2  0  0  0  0
 10  5  1  0  0  0  0
 12 13  1  0  0  0  0
 15 14  1  0  0  0  0
 16 15  1  0  0  0  0
 17 16  1  0  0  0  0
 18 17  2  0  0  0  0
 19 20  2  0  0  0  0
 19 18  1  0  0  0  0
 20 21  1  0  0  0  0
 21 16  2  0  0  0  0
 22 19  1  0  0  0  0
 23 22  1  0  0  0  0
 24 20  1  0  0  0  0
 25 24  1  0  0  0  0
M  END
>  <MODEL>
6

>  <REMARK>
 VINA RESULT:    -5.597      2.974      6.916
 INTER + INTRA:         -10.196
 INTER:                  -8.653
 INTRA:                  -1.543
 UNBOUND:                -1.982
  Name = CHEMBL1529305
  11 active torsions:
  status: ('A' for Active; 'I' for Inactive)
    1  A    between atoms: C_1  and  O_2
    2  A    between atoms: O_2  and  C_3
    3  A    between atoms: C_7  and  C_8
    4  A    between atoms: C_8  and  N_9
    5  A    between atoms: C_10  and  C_12
    6  A    between atoms: C_12  and  C_13
    7  A    between atoms: C_13  and  C_14
    8  A    between atoms: C_17  and  O_18
    9  A    between atoms: O_18  and  C_19
   10  A    between atoms: C_20  and  O_21
   11  A    between atoms: O_21  and  C_22
                            x       y       z     vdW  Elec       q    Type
                         _______ _______ _______ _____ _____    ______ ____

>  <TORSDO>
F 8

>  <SCORE>
-5.597

>  <RMSD_LB>
2.974

>  <RMSD_UB>
6.916

$$$$
CHEMBL1529305
 OpenBabel10172500103D

 25 26  0  0  0  0  0  0  0  0999 V2000
  135.2530  133.3940  144.9720 N   0  0  0  0  0  0  0  0  0  0  0  0
  135.8470  132.1870  144.6790 C   0  0  0  0  0  0  0  0  0  0  0  0
  135.8440  131.2330  145.4470 O   0  0  0  0  0  0  0  0  0  0  0  0
  135.2900  134.1200  144.3080 H   0  0  0  0  0  0  0  0  0  0  0  0
  134.5750  133.6240  146.2290 C   0  0  0  0  0  2  0  0  0  0  0  0
  132.9490  136.8160  147.5520 C   0  0  0  0  0  0  0  0  0  0  0  0
  132.9940  137.6360  146.4250 C   0  0  0  0  0  3  0  0  0  0  0  0
  133.5110  137.1440  145.2230 C   0  0  0  0  0  3  0  0  0  0  0  0
  134.0030  135.8410  145.1450 C   0  0  0  0  0  3  0  0  0  0  0  0
  133.9760  135.0070  146.2730 C   0  0  0  0  0  0  0  0  0  0  0  0
  133.4290  135.5040  147.4650 C   0  0  0  0  0  3  0  0  0  0  0  0
  132.8510  136.3360  149.8780 C   0  0  0  0  0  1  0  0  0  0  0  0
  132.4840  137.1710  148.7880 O   0  0  0  0  0  0  0  0  0  0  0  0
  136.5370  132.1560  143.3250 C   0  0  0  0  0  2  0  0  0  0  0  0
  137.1430  133.5170  142.9950 C   0  0  0  0  0  2  0  0  0  0  0  0
  137.5680  133.6440  141.5500 C   0  0  0  0  0  0  0  0  0  0  0  0
  138.4820  132.7460  140.9990 C   0  0  0  0  0  3  0  0  0  0  0  0
  138.8480  132.8350  139.6500 C   0  0  0  0  0  3  0  0  0  0  0  0
  138.2960  133.8190  138.8180 C   0  0  0  0  0  0  0  0  0  0  0  0
  137.3610  134.7160  139.3630 C   0  0  0  0  0  0  0  0  0  0  0  0
  137.0340  134.6450  140.7280 C   0  0  0  0  0  3  0  0  0  0  0  0
  138.6420  133.9780  137.5030 O   0  0  0  0  0  0  0  0  0  0  0  0
  139.9930  134.2820  137.1900 C   0  0  0  0  0  1  0  0  0  0  0  0
  136.7150  135.7300  138.6990 O   0  0  0  0  0  0  0  0  0  0  0  0
  135.8720  136.5640  139.4910 C   0  0  0  0  0  1  0  0  0  0  0  0
  1  5  1  0  0  0  0
  2  1  1  0  0  0  0
  2  3  2  0  0  0  0
  4  1  1  0  0  0  0
  5 10  1  0  0  0  0
  6 13  1  0  0  0  0
  7  6  2  0  0  0  0
  8  7  1  0  0  0  0
  9  8  2  0  0  0  0
  9 10  1  0  0  0  0
 10 11  2  0  0  0  0
 11  6  1  0  0  0  0
 13 12  1  0  0  0  0
 14  2  1  0  0  0  0
 15 14  1  0  0  0  0
 16 15  1  0  0  0  0
 17 16  1  0  0  0  0
 18 17  2  0  0  0  0
 19 20  2  0  0  0  0
 19 18  1  0  0  0  0
 20 21  1  0  0  0  0
 21 16  2  0  0  0  0
 22 19  1  0  0  0  0
 23 22  1  0  0  0  0
 24 20  1  0  0  0  0
 24 25  1  0  0  0  0
M  END
>  <MODEL>
7

>  <REMARK>
 VINA RESULT:    -5.463     11.827     14.015
 INTER + INTRA:         -10.000
 INTER:                  -9.280
 INTRA:                  -0.719
 UNBOUND:                -1.982
  Name = CHEMBL1529305
  11 active torsions:
  status: ('A' for Active; 'I' for Inactive)
    1  A    between atoms: C_1  and  O_2
    2  A    between atoms: O_2  and  C_3
    3  A    between atoms: C_7  and  C_8
    4  A    between atoms: C_8  and  N_9
    5  A    between atoms: C_10  and  C_12
    6  A    between atoms: C_12  and  C_13
    7  A    between atoms: C_13  and  C_14
    8  A    between atoms: C_17  and  O_18
    9  A    between atoms: O_18  and  C_19
   10  A    between atoms: C_20  and  O_21
   11  A    between atoms: O_21  and  C_22
                            x       y       z     vdW  Elec       q    Type
                         _______ _______ _______ _____ _____    ______ ____

>  <TORSDO>
F 8

>  <SCORE>
-5.463

>  <RMSD_LB>
11.827

>  <RMSD_UB>
14.015

$$$$
CHEMBL1529305
 OpenBabel10172500103D

 25 26  0  0  0  0  0  0  0  0999 V2000
  145.7630  136.9870  149.2440 N   0  0  0  0  0  0  0  0  0  0  0  0
  145.9330  138.1550  148.5370 C   0  0  0  0  0  0  0  0  0  0  0  0
  147.0020  138.7470  148.4630 O   0  0  0  0  0  0  0  0  0  0  0  0
  144.8760  136.5610  149.2610 H   0  0  0  0  0  0  0  0  0  0  0  0
  146.8550  136.3670  149.9630 C   0  0  0  0  0  2  0  0  0  0  0  0
  147.6140  138.1980  153.2280 C   0  0  0  0  0  0  0  0  0  0  0  0
  146.6970  137.6050  154.0960 C   0  0  0  0  0  3  0  0  0  0  0  0
  145.8610  136.5840  153.6380 C   0  0  0  0  0  3  0  0  0  0  0  0
  145.9220  136.1610  152.3100 C   0  0  0  0  0  3  0  0  0  0  0  0
  146.8310  136.7550  151.4200 C   0  0  0  0  0  0  0  0  0  0  0  0
  147.6820  137.7600  151.9000 C   0  0  0  0  0  3  0  0  0  0  0  0
  148.3100  139.8340  154.8050 C   0  0  0  0  0  1  0  0  0  0  0  0
  148.4780  139.2120  153.5380 O   0  0  0  0  0  0  0  0  0  0  0  0
  144.6600  138.6640  147.8800 C   0  0  0  0  0  2  0  0  0  0  0  0
  144.1880  139.9560  148.5420 C   0  0  0  0  0  2  0  0  0  0  0  0
  144.0120  139.8290  150.0370 C   0  0  0  0  0  0  0  0  0  0  0  0
  143.0410  138.9780  150.5670 C   0  0  0  0  0  3  0  0  0  0  0  0
  142.9020  138.8270  151.9520 C   0  0  0  0  0  3  0  0  0  0  0  0
  143.7410  139.5140  152.8390 C   0  0  0  0  0  0  0  0  0  0  0  0
  144.7330  140.3600  152.3120 C   0  0  0  0  0  0  0  0  0  0  0  0
  144.8350  140.5380  150.9220 C   0  0  0  0  0  3  0  0  0  0  0  0
  143.6290  139.4350  154.2020 O   0  0  0  0  0  0  0  0  0  0  0  0
  142.3620  139.1210  154.7600 C   0  0  0  0  0  1  0  0  0  0  0  0
  145.6440  141.1000  153.0250 O   0  0  0  0  0  0  0  0  0  0  0  0
  146.2030  142.2270  152.3550 C   0  0  0  0  0  1  0  0  0  0  0  0
  1  4  1  0  0  0  0
  1  5  1  0  0  0  0
  2  1  1  0  0  0  0
  3  2  2  0  0  0  0
  5 10  1  0  0  0  0
  6 13  1  0  0  0  0
  6  7  1  0  0  0  0
  8  7  2  0  0  0  0
  9  8  1  0  0  0  0
 10 11  1  0  0  0  0
 10  9  2  0  0  0  0
 11  6  2  0  0  0  0
 13 12  1  0  0  0  0
 14  2  1  0  0  0  0
 14 15  1  0  0  0  0
 15 16  1  0  0  0  0
 16 17  2  0  0  0  0
 16 21  1  0  0  0  0
 17 18  1  0  0  0  0
 18 19  2  0  0  0  0
 19 22  1  0  0  0  0
 20 19  1  0  0  0  0
 20 24  1  0  0  0  0
 21 20  2  0  0  0  0
 22 23  1  0  0  0  0
 25 24  1  0  0  0  0
M  END
>  <MODEL>
8

>  <REMARK>
 VINA RESULT:    -5.348      3.764      5.949
 INTER + INTRA:          -9.831
 INTER:                  -7.849
 INTRA:                  -1.982
 UNBOUND:                -1.982
  Name = CHEMBL1529305
  11 active torsions:
  status: ('A' for Active; 'I' for Inactive)
    1  A    between atoms: C_1  and  O_2
    2  A    between atoms: O_2  and  C_3
    3  A    between atoms: C_7  and  C_8
    4  A    between atoms: C_8  and  N_9
    5  A    between atoms: C_10  and  C_12
    6  A    between atoms: C_12  and  C_13
    7  A    between atoms: C_13  and  C_14
    8  A    between atoms: C_17  and  O_18
    9  A    between atoms: O_18  and  C_19
   10  A    between atoms: C_20  and  O_21
   11  A    between atoms: O_21  and  C_22
                            x       y       z     vdW  Elec       q    Type
                         _______ _______ _______ _____ _____    ______ ____

>  <TORSDO>
F 8

>  <SCORE>
-5.348

>  <RMSD_LB>
3.764

>  <RMSD_UB>
5.949

$$$$
CHEMBL1529305
 OpenBabel10172500103D

 25 26  0  0  0  0  0  0  0  0999 V2000
  138.3230  137.7850  153.1080 N   0  0  0  0  0  0  0  0  0  0  0  0
  139.4340  137.8720  152.3020 C   0  0  0  0  0  0  0  0  0  0  0  0
  140.5010  138.3430  152.6770 O   0  0  0  0  0  0  0  0  0  0  0  0
  137.4960  137.3930  152.7440 H   0  0  0  0  0  0  0  0  0  0  0  0
  138.3360  138.2540  154.4770 C   0  0  0  0  0  2  0  0  0  0  0  0
  135.6870  135.7640  155.6450 C   0  0  0  0  0  0  0  0  0  0  0  0
  136.0950  135.5210  156.9560 C   0  0  0  0  0  3  0  0  0  0  0  0
  137.2040  136.1930  157.4790 C   0  0  0  0  0  3  0  0  0  0  0  0
  137.9200  137.0960  156.6920 C   0  0  0  0  0  3  0  0  0  0  0  0
  137.5280  137.3430  155.3670 C   0  0  0  0  0  0  0  0  0  0  0  0
  136.3990  136.6830  154.8640 C   0  0  0  0  0  3  0  0  0  0  0  0
  134.3720  135.5860  153.6730 C   0  0  0  0  0  1  0  0  0  0  0  0
  134.6330  135.1700  155.0060 O   0  0  0  0  0  0  0  0  0  0  0  0
  139.2080  137.3580  150.8890 C   0  0  0  0  0  2  0  0  0  0  0  0
  137.9630  137.9920  150.2750 C   0  0  0  0  0  2  0  0  0  0  0  0
  136.8910  136.9840  149.9310 C   0  0  0  0  0  0  0  0  0  0  0  0
  136.9310  135.6970  150.4660 C   0  0  0  0  0  3  0  0  0  0  0  0
  135.9180  134.7720  150.1830 C   0  0  0  0  0  3  0  0  0  0  0  0
  134.8350  135.1190  149.3650 C   0  0  0  0  0  0  0  0  0  0  0  0
  134.7800  136.4210  148.8360 C   0  0  0  0  0  0  0  0  0  0  0  0
  135.8230  137.3270  149.0910 C   0  0  0  0  0  3  0  0  0  0  0  0
  133.8350  134.2490  149.0230 O   0  0  0  0  0  0  0  0  0  0  0  0
  134.0420  132.8610  149.2410 C   0  0  0  0  0  1  0  0  0  0  0  0
  133.7950  136.9370  148.0290 O   0  0  0  0  0  0  0  0  0  0  0  0
  134.0460  136.8980  146.6260 C   0  0  0  0  0  1  0  0  0  0  0  0
  1  5  1  0  0  0  0
  2  3  2  0  0  0  0
  2  1  1  0  0  0  0
  4  1  1  0  0  0  0
  5 10  1  0  0  0  0
  6  7  1  0  0  0  0
  7  8  2  0  0  0  0
  9  8  1  0  0  0  0
 10  9  2  0  0  0  0
 11 10  1  0  0  0  0
 11  6  2  0  0  0  0
 12 13  1  0  0  0  0
 13  6  1  0  0  0  0
 14  2  1  0  0  0  0
 15 14  1  0  0  0  0
 16 15  1  0  0  0  0
 16 17  1  0  0  0  0
 18 17  2  0  0  0  0
 19 18  1  0  0  0  0
 20 21  1  0  0  0  0
 20 19  2  0  0  0  0
 21 16  2  0  0  0  0
 22 23  1  0  0  0  0
 22 19  1  0  0  0  0
 24 20  1  0  0  0  0
 25 24  1  0  0  0  0
M  END
>  <MODEL>
9

>  <REMARK>
 VINA RESULT:    -5.320      5.904      8.947
 INTER + INTRA:          -9.790
 INTER:                  -8.788
 INTRA:                  -1.002
 UNBOUND:                -1.982
  Name = CHEMBL1529305
  11 active torsions:
  status: ('A' for Active; 'I' for Inactive)
    1  A    between atoms: C_1  and  O_2
    2  A    between atoms: O_2  and  C_3
    3  A    between atoms: C_7  and  C_8
    4  A    between atoms: C_8  and  N_9
    5  A    between atoms: C_10  and  C_12
    6  A    between atoms: C_12  and  C_13
    7  A    between atoms: C_13  and  C_14
    8  A    between atoms: C_17  and  O_18
    9  A    between atoms: O_18  and  C_19
   10  A    between atoms: C_20  and  O_21
   11  A    between atoms: O_21  and  C_22
                            x       y       z     vdW  Elec       q    Type
                         _______ _______ _______ _____ _____    ______ ____

>  <TORSDO>
F 8

>  <SCORE>
-5.320

>  <RMSD_LB>
5.904

>  <RMSD_UB>
8.947

$$$$
