CHEMBL1547128
 OpenBabel10172500323D

 30 31  0  0  0  0  0  0  0  0999 V2000
  135.0740  134.6290  154.2860 N   0  0  0  0  0  0  0  0  0  0  0  0
  134.8310  135.9420  154.6210 C   0  0  0  0  0  0  0  0  0  0  0  0
  133.8720  136.5890  154.2050 O   0  0  0  0  0  0  0  0  0  0  0  0
  135.8240  134.1620  154.7190 H   0  0  0  0  0  0  0  0  0  0  0  0
  134.2690  133.9070  153.3220 C   0  0  0  0  0  2  0  0  0  0  0  0
  135.6070  134.2800  149.2050 C   0  0  0  0  0  0  0  0  0  0  0  0
  136.3310  134.8740  150.2470 C   0  0  0  0  0  3  0  0  0  0  0  0
  135.9070  134.7620  151.5750 C   0  0  0  0  0  3  0  0  0  0  0  0
  134.7290  134.0800  151.8940 C   0  0  0  0  0  0  0  0  0  0  0  0
  134.0070  133.4820  150.8490 C   0  0  0  0  0  3  0  0  0  0  0  0
  134.4400  133.5610  149.5160 C   0  0  0  0  0  0  0  0  0  0  0  0
  136.4130  135.7130  147.4820 C   0  0  0  0  0  1  0  0  0  0  0  0
  135.9460  134.4310  147.8860 O   0  0  0  0  0  0  0  0  0  0  0  0
  133.6090  132.9280  148.6240 O   0  0  0  0  0  0  0  0  0  0  0  0
  132.6000  133.7350  148.0240 C   0  0  0  0  0  1  0  0  0  0  0  0
  135.8140  136.5250  155.6370 C   0  0  0  0  0  2  0  0  0  0  0  0
  137.1310  136.6690  155.0480 N   0  0  0  0  0  0  0  0  0  0  0  0
  137.7010  137.9100  154.8690 C   0  0  0  0  0  0  0  0  0  0  0  0
  137.1540  138.9460  155.2320 O   0  0  0  0  0  0  0  0  0  0  0  0
  137.6260  135.8660  154.7690 H   0  0  0  0  0  0  0  0  0  0  0  0
  139.0350  137.9480  154.2080 C   0  0  0  0  0  0  0  0  0  0  0  0
  140.2170  138.1070  154.9350 C   0  0  0  0  0  3  0  0  0  0  0  0
  141.4540  138.1130  154.2790 C   0  0  0  0  0  3  0  0  0  0  0  0
  141.5540  137.9560  152.8860 C   0  0  0  0  0  0  0  0  0  0  0  0
  140.3520  137.7820  152.1750 C   0  0  0  0  0  3  0  0  0  0  0  0
  139.1100  137.7750  152.8240 C   0  0  0  0  0  3  0  0  0  0  0  0
  142.9070  137.9560  152.1490 C   0  0  0  0  0  0  0  0  0  0  0  0
  142.9190  137.0680  150.8820 C   0  0  0  0  0  1  0  0  0  0  0  0
  143.2610  139.3910  151.7050 C   0  0  0  0  0  1  0  0  0  0  0  0
  144.0200  137.4300  153.0800 C   0  0  0  0  0  1  0  0  0  0  0  0
  1  2  1  0  0  0  0
  1  4  1  0  0  0  0
  2 16  1  0  0  0  0
  3  2  2  0  0  0  0
  5  1  1  0  0  0  0
  6 11  2  0  0  0  0
  6  7  1  0  0  0  0
  7  8  2  0  0  0  0
  8  9  1  0  0  0  0
  9  5  1  0  0  0  0
 10  9  2  0  0  0  0
 11 10  1  0  0  0  0
 12 13  1  0  0  0  0
 13  6  1  0  0  0  0
 14 11  1  0  0  0  0
 15 14  1  0  0  0  0
 17 16  1  0  0  0  0
 18 17  1  0  0  0  0
 18 19  2  0  0  0  0
 20 17  1  0  0  0  0
 21 18  1  0  0  0  0
 21 22  1  0  0  0  0
 23 22  2  0  0  0  0
 24 23  1  0  0  0  0
 25 26  1  0  0  0  0
 25 24  2  0  0  0  0
 26 21  2  0  0  0  0
 27 24  1  0  0  0  0
 27 30  1  0  0  0  0
 28 27  1  0  0  0  0
 29 27  1  0  0  0  0
M  END
>  <MODEL>
1

>  <REMARK>
 VINA RESULT:    -8.365      0.000      0.000
 INTER + INTRA:         -13.290
 INTER:                 -12.306
 INTRA:                  -0.984
 UNBOUND:                -1.013
  Name = CHEMBL1547128
  13 active torsions:
  status: ('A' for Active; 'I' for Inactive)
    1  A    between atoms: C_1  and  O_2
    2  A    between atoms: O_2  and  C_3
    3  A    between atoms: C_6  and  C_7
    4  A    between atoms: C_7  and  N_8
    5  A    between atoms: C_9  and  C_11
    6  A    between atoms: C_11  and  N_12
    7  A    between atoms: C_13  and  C_15
    8  A    between atoms: C_18  and  C_19
    9  A    between atoms: C_19  and  C_20
   10  A    between atoms: C_19  and  C_21
   11  A    between atoms: C_19  and  C_22
   12  A    between atoms: C_26  and  O_27
   13  A    between atoms: O_27  and  C_28
                            x       y       z     vdW  Elec       q    Type
                         _______ _______ _______ _____ _____    ______ ____

>  <TORSDO>
F 8

>  <SCORE>
-8.365

>  <RMSD_LB>
0.000

>  <RMSD_UB>
0.000

$$$$
CHEMBL1547128
 OpenBabel10172500323D

 30 31  0  0  0  0  0  0  0  0999 V2000
  134.9120  135.0990  153.8730 N   0  0  0  0  0  0  0  0  0  0  0  0
  134.8890  135.2260  155.2430 C   0  0  0  0  0  0  0  0  0  0  0  0
  134.3860  134.3980  156.0000 O   0  0  0  0  0  0  0  0  0  0  0  0
  135.3970  135.7730  153.3450 H   0  0  0  0  0  0  0  0  0  0  0  0
  134.2500  134.0140  153.1770 C   0  0  0  0  0  2  0  0  0  0  0  0
  134.8820  134.1510  148.8800 C   0  0  0  0  0  0  0  0  0  0  0  0
  133.8880  133.3310  149.4300 C   0  0  0  0  0  3  0  0  0  0  0  0
  133.6790  133.2780  150.8110 C   0  0  0  0  0  3  0  0  0  0  0  0
  134.4800  134.0190  151.6850 C   0  0  0  0  0  0  0  0  0  0  0  0
  135.4730  134.8440  151.1320 C   0  0  0  0  0  3  0  0  0  0  0  0
  135.6710  134.9290  149.7450 C   0  0  0  0  0  0  0  0  0  0  0  0
  135.4940  132.9300  146.9300 C   0  0  0  0  0  1  0  0  0  0  0  0
  135.1680  134.1730  147.5410 O   0  0  0  0  0  0  0  0  0  0  0  0
  136.6900  135.7750  149.3810 O   0  0  0  0  0  0  0  0  0  0  0  0
  137.9630  135.1720  149.1710 C   0  0  0  0  0  1  0  0  0  0  0  0
  135.6250  136.4570  155.7750 C   0  0  0  0  0  2  0  0  0  0  0  0
  136.9060  136.6090  155.1140 N   0  0  0  0  0  0  0  0  0  0  0  0
  137.4940  137.8470  154.9750 C   0  0  0  0  0  0  0  0  0  0  0  0
  136.9950  138.8700  155.4330 O   0  0  0  0  0  0  0  0  0  0  0  0
  137.3640  135.8150  154.7570 H   0  0  0  0  0  0  0  0  0  0  0  0
  138.7860  137.8980  154.2350 C   0  0  0  0  0  0  0  0  0  0  0  0
  140.0080  138.0590  154.8900 C   0  0  0  0  0  3  0  0  0  0  0  0
  141.2040  138.0780  154.1610 C   0  0  0  0  0  3  0  0  0  0  0  0
  141.2200  137.9320  152.7630 C   0  0  0  0  0  0  0  0  0  0  0  0
  139.9770  137.7560  152.1240 C   0  0  0  0  0  3  0  0  0  0  0  0
  138.7770  137.7370  152.8470 C   0  0  0  0  0  3  0  0  0  0  0  0
  142.5250  137.9460  151.9450 C   0  0  0  0  0  0  0  0  0  0  0  0
  142.9020  139.3480  151.4080 C   0  0  0  0  0  1  0  0  0  0  0  0
  143.6990  137.4620  152.8230 C   0  0  0  0  0  1  0  0  0  0  0  0
  142.3960  137.0130  150.7210 C   0  0  0  0  0  1  0  0  0  0  0  0
  1  2  1  0  0  0  0
  2 16  1  0  0  0  0
  2  3  2  0  0  0  0
  4  1  1  0  0  0  0
  5  1  1  0  0  0  0
  6  7  2  0  0  0  0
  6 11  1  0  0  0  0
  7  8  1  0  0  0  0
  8  9  2  0  0  0  0
  9  5  1  0  0  0  0
 10  9  1  0  0  0  0
 11 10  2  0  0  0  0
 12 13  1  0  0  0  0
 13  6  1  0  0  0  0
 14 11  1  0  0  0  0
 15 14  1  0  0  0  0
 17 16  1  0  0  0  0
 18 17  1  0  0  0  0
 18 19  2  0  0  0  0
 20 17  1  0  0  0  0
 21 22  1  0  0  0  0
 21 18  1  0  0  0  0
 23 22  2  0  0  0  0
 24 23  1  0  0  0  0
 25 24  2  0  0  0  0
 25 26  1  0  0  0  0
 26 21  2  0  0  0  0
 27 24  1  0  0  0  0
 27 29  1  0  0  0  0
 28 27  1  0  0  0  0
 30 27  1  0  0  0  0
M  END
>  <MODEL>
2

>  <REMARK>
 VINA RESULT:    -8.007      1.035      2.024
 INTER + INTRA:         -12.765
 INTER:                 -11.717
 INTRA:                  -1.047
 UNBOUND:                -1.013
  Name = CHEMBL1547128
  13 active torsions:
  status: ('A' for Active; 'I' for Inactive)
    1  A    between atoms: C_1  and  O_2
    2  A    between atoms: O_2  and  C_3
    3  A    between atoms: C_6  and  C_7
    4  A    between atoms: C_7  and  N_8
    5  A    between atoms: C_9  and  C_11
    6  A    between atoms: C_11  and  N_12
    7  A    between atoms: C_13  and  C_15
    8  A    between atoms: C_18  and  C_19
    9  A    between atoms: C_19  and  C_20
   10  A    between atoms: C_19  and  C_21
   11  A    between atoms: C_19  and  C_22
   12  A    between atoms: C_26  and  O_27
   13  A    between atoms: O_27  and  C_28
                            x       y       z     vdW  Elec       q    Type
                         _______ _______ _______ _____ _____    ______ ____

>  <TORSDO>
F 8

>  <SCORE>
-8.007

>  <RMSD_LB>
1.035

>  <RMSD_UB>
2.024

$$$$
CHEMBL1547128
 OpenBabel10172500323D

 30 31  0  0  0  0  0  0  0  0999 V2000
  134.4710  135.4550  149.9420 N   0  0  0  0  0  0  0  0  0  0  0  0
  134.5000  134.5250  150.9560 C   0  0  0  0  0  0  0  0  0  0  0  0
  133.5450  133.8130  151.2600 O   0  0  0  0  0  0  0  0  0  0  0  0
  135.3010  135.9340  149.7170 H   0  0  0  0  0  0  0  0  0  0  0  0
  133.2680  135.7580  149.1940 C   0  0  0  0  0  2  0  0  0  0  0  0
  134.0310  138.1510  145.6480 C   0  0  0  0  0  0  0  0  0  0  0  0
  132.7320  137.7280  145.9570 C   0  0  0  0  0  3  0  0  0  0  0  0
  132.4770  136.9550  147.0940 C   0  0  0  0  0  3  0  0  0  0  0  0
  133.5190  136.5560  147.9370 C   0  0  0  0  0  0  0  0  0  0  0  0
  134.8200  136.9850  147.6270 C   0  0  0  0  0  3  0  0  0  0  0  0
  135.0830  137.7870  146.5060 C   0  0  0  0  0  0  0  0  0  0  0  0
  133.2600  139.5110  143.8520 C   0  0  0  0  0  1  0  0  0  0  0  0
  134.3340  138.8430  144.5050 O   0  0  0  0  0  0  0  0  0  0  0  0
  136.4110  138.1050  146.3510 O   0  0  0  0  0  0  0  0  0  0  0  0
  137.2620  137.0500  145.9120 C   0  0  0  0  0  1  0  0  0  0  0  0
  135.8610  134.3770  151.6370 C   0  0  0  0  0  2  0  0  0  0  0  0
  135.7160  134.4050  153.0790 N   0  0  0  0  0  0  0  0  0  0  0  0
  135.9400  135.5600  153.7960 C   0  0  0  0  0  0  0  0  0  0  0  0
  136.2290  136.6240  153.2600 O   0  0  0  0  0  0  0  0  0  0  0  0
  135.4530  133.5850  153.5550 H   0  0  0  0  0  0  0  0  0  0  0  0
  135.8120  135.4660  155.2780 C   0  0  0  0  0  0  0  0  0  0  0  0
  134.7320  134.8240  155.8880 C   0  0  0  0  0  3  0  0  0  0  0  0
  134.6600  134.7360  157.2840 C   0  0  0  0  0  3  0  0  0  0  0  0
  135.6600  135.2760  158.1120 C   0  0  0  0  0  0  0  0  0  0  0  0
  136.7460  135.9050  157.4750 C   0  0  0  0  0  3  0  0  0  0  0  0
  136.8250  135.9980  156.0790 C   0  0  0  0  0  3  0  0  0  0  0  0
  135.5990  135.1850  159.6480 C   0  0  0  0  0  0  0  0  0  0  0  0
  134.2130  134.7570  160.1870 C   0  0  0  0  0  1  0  0  0  0  0  0
  136.6260  134.1490  160.1530 C   0  0  0  0  0  1  0  0  0  0  0  0
  135.9230  136.5580  160.2760 C   0  0  0  0  0  1  0  0  0  0  0  0
  1  2  1  0  0  0  0
  2  3  2  0  0  0  0
  2 16  1  0  0  0  0
  4  1  1  0  0  0  0
  5  1  1  0  0  0  0
  6  7  2  0  0  0  0
  6 11  1  0  0  0  0
  7  8  1  0  0  0  0
  8  9  2  0  0  0  0
  9  5  1  0  0  0  0
 10  9  1  0  0  0  0
 11 10  2  0  0  0  0
 12 13  1  0  0  0  0
 13  6  1  0  0  0  0
 14 11  1  0  0  0  0
 15 14  1  0  0  0  0
 16 17  1  0  0  0  0
 17 20  1  0  0  0  0
 17 18  1  0  0  0  0
 18 21  1  0  0  0  0
 19 18  2  0  0  0  0
 21 22  2  0  0  0  0
 21 26  1  0  0  0  0
 22 23  1  0  0  0  0
 23 24  2  0  0  0  0
 24 27  1  0  0  0  0
 25 24  1  0  0  0  0
 26 25  2  0  0  0  0
 27 29  1  0  0  0  0
 27 28  1  0  0  0  0
 27 30  1  0  0  0  0
M  END
>  <MODEL>
3

>  <REMARK>
 VINA RESULT:    -7.570      4.123      6.703
 INTER + INTRA:         -12.124
 INTER:                 -11.282
 INTRA:                  -0.842
 UNBOUND:                -1.013
  Name = CHEMBL1547128
  13 active torsions:
  status: ('A' for Active; 'I' for Inactive)
    1  A    between atoms: C_1  and  O_2
    2  A    between atoms: O_2  and  C_3
    3  A    between atoms: C_6  and  C_7
    4  A    between atoms: C_7  and  N_8
    5  A    between atoms: C_9  and  C_11
    6  A    between atoms: C_11  and  N_12
    7  A    between atoms: C_13  and  C_15
    8  A    between atoms: C_18  and  C_19
    9  A    between atoms: C_19  and  C_20
   10  A    between atoms: C_19  and  C_21
   11  A    between atoms: C_19  and  C_22
   12  A    between atoms: C_26  and  O_27
   13  A    between atoms: O_27  and  C_28
                            x       y       z     vdW  Elec       q    Type
                         _______ _______ _______ _____ _____    ______ ____

>  <TORSDO>
F 8

>  <SCORE>
-7.570

>  <RMSD_LB>
4.123

>  <RMSD_UB>
6.703

$$$$
CHEMBL1547128
 OpenBabel10172500323D

 30 31  0  0  0  0  0  0  0  0999 V2000
  138.8810  139.3010  150.4860 N   0  0  0  0  0  0  0  0  0  0  0  0
  138.7810  140.4470  149.7320 C   0  0  0  0  0  0  0  0  0  0  0  0
  139.5620  141.3920  149.8140 O   0  0  0  0  0  0  0  0  0  0  0  0
  138.2560  138.5620  150.3080 H   0  0  0  0  0  0  0  0  0  0  0  0
  139.8690  139.1390  151.5330 C   0  0  0  0  0  2  0  0  0  0  0  0
  138.1680  137.5040  155.1820 C   0  0  0  0  0  0  0  0  0  0  0  0
  139.3420  138.2670  155.2210 C   0  0  0  0  0  3  0  0  0  0  0  0
  139.8990  138.7950  154.0530 C   0  0  0  0  0  3  0  0  0  0  0  0
  139.3150  138.5470  152.8070 C   0  0  0  0  0  0  0  0  0  0  0  0
  138.1350  137.7850  152.7700 C   0  0  0  0  0  3  0  0  0  0  0  0
  137.5510  137.2770  153.9400 C   0  0  0  0  0  0  0  0  0  0  0  0
  137.1020  137.7650  157.2950 C   0  0  0  0  0  1  0  0  0  0  0  0
  137.6330  136.9060  156.2930 O   0  0  0  0  0  0  0  0  0  0  0  0
  136.4070  136.5480  153.7170 O   0  0  0  0  0  0  0  0  0  0  0  0
  136.2360  136.0380  152.3980 C   0  0  0  0  0  1  0  0  0  0  0  0
  137.6530  140.4250  148.6990 C   0  0  0  0  0  2  0  0  0  0  0  0
  136.8160  139.2550  148.8830 N   0  0  0  0  0  0  0  0  0  0  0  0
  137.1230  138.0570  148.2760 C   0  0  0  0  0  0  0  0  0  0  0  0
  138.1290  137.9020  147.5910 O   0  0  0  0  0  0  0  0  0  0  0  0
  136.0160  139.3170  149.4500 H   0  0  0  0  0  0  0  0  0  0  0  0
  136.1700  136.9320  148.4900 C   0  0  0  0  0  0  0  0  0  0  0  0
  134.8330  137.1500  148.8290 C   0  0  0  0  0  3  0  0  0  0  0  0
  133.9620  136.0660  148.9980 C   0  0  0  0  0  3  0  0  0  0  0  0
  134.3910  134.7380  148.8310 C   0  0  0  0  0  0  0  0  0  0  0  0
  135.7400  134.5430  148.4760 C   0  0  0  0  0  3  0  0  0  0  0  0
  136.6170  135.6220  148.3050 C   0  0  0  0  0  3  0  0  0  0  0  0
  133.4470  133.5350  149.0090 C   0  0  0  0  0  0  0  0  0  0  0  0
  132.5300  133.6480  150.2510 C   0  0  0  0  0  1  0  0  0  0  0  0
  132.5300  133.4000  147.7750 C   0  0  0  0  0  1  0  0  0  0  0  0
  134.2650  132.2350  149.1700 C   0  0  0  0  0  1  0  0  0  0  0  0
  1  5  1  0  0  0  0
  2  3  2  0  0  0  0
  2  1  1  0  0  0  0
  4  1  1  0  0  0  0
  5  9  1  0  0  0  0
  6  7  1  0  0  0  0
  6 13  1  0  0  0  0
  8  7  2  0  0  0  0
  9  8  1  0  0  0  0
 10  9  2  0  0  0  0
 10 11  1  0  0  0  0
 11  6  2  0  0  0  0
 13 12  1  0  0  0  0
 14 11  1  0  0  0  0
 15 14  1  0  0  0  0
 16 17  1  0  0  0  0
 16  2  1  0  0  0  0
 17 20  1  0  0  0  0
 18 21  1  0  0  0  0
 18 17  1  0  0  0  0
 19 18  2  0  0  0  0
 21 22  1  0  0  0  0
 22 23  2  0  0  0  0
 24 23  1  0  0  0  0
 24 27  1  0  0  0  0
 25 24  2  0  0  0  0
 26 25  1  0  0  0  0
 26 21  2  0  0  0  0
 27 30  1  0  0  0  0
 27 28  1  0  0  0  0
 29 27  1  0  0  0  0
M  END
>  <MODEL>
4

>  <REMARK>
 VINA RESULT:    -7.437      3.083      8.202
 INTER + INTRA:         -11.928
 INTER:                 -10.851
 INTRA:                  -1.077
 UNBOUND:                -1.013
  Name = CHEMBL1547128
  13 active torsions:
  status: ('A' for Active; 'I' for Inactive)
    1  A    between atoms: C_1  and  O_2
    2  A    between atoms: O_2  and  C_3
    3  A    between atoms: C_6  and  C_7
    4  A    between atoms: C_7  and  N_8
    5  A    between atoms: C_9  and  C_11
    6  A    between atoms: C_11  and  N_12
    7  A    between atoms: C_13  and  C_15
    8  A    between atoms: C_18  and  C_19
    9  A    between atoms: C_19  and  C_20
   10  A    between atoms: C_19  and  C_21
   11  A    between atoms: C_19  and  C_22
   12  A    between atoms: C_26  and  O_27
   13  A    between atoms: O_27  and  C_28
                            x       y       z     vdW  Elec       q    Type
                         _______ _______ _______ _____ _____    ______ ____

>  <TORSDO>
F 8

>  <SCORE>
-7.437

>  <RMSD_LB>
3.083

>  <RMSD_UB>
8.202

$$$$
CHEMBL1547128
 OpenBabel10172500323D

 30 31  0  0  0  0  0  0  0  0999 V2000
  135.7590  135.1650  153.9970 N   0  0  0  0  0  0  0  0  0  0  0  0
  135.1060  135.8980  153.0320 C   0  0  0  0  0  0  0  0  0  0  0  0
  133.9400  136.2740  153.1290 O   0  0  0  0  0  0  0  0  0  0  0  0
  136.7140  134.9650  153.8730 H   0  0  0  0  0  0  0  0  0  0  0  0
  135.0950  134.6760  155.1880 C   0  0  0  0  0  2  0  0  0  0  0  0
  136.2030  136.7630  158.8350 C   0  0  0  0  0  0  0  0  0  0  0  0
  136.9190  136.9700  157.6480 C   0  0  0  0  0  3  0  0  0  0  0  0
  136.5720  136.3020  156.4700 C   0  0  0  0  0  3  0  0  0  0  0  0
  135.5190  135.3810  156.4540 C   0  0  0  0  0  0  0  0  0  0  0  0
  134.8010  135.1780  157.6440 C   0  0  0  0  0  3  0  0  0  0  0  0
  135.1200  135.8670  158.8230 C   0  0  0  0  0  0  0  0  0  0  0  0
  137.8260  137.9850  160.0770 C   0  0  0  0  0  1  0  0  0  0  0  0
  136.5580  137.3400  160.0260 O   0  0  0  0  0  0  0  0  0  0  0  0
  134.3210  135.5390  159.8910 O   0  0  0  0  0  0  0  0  0  0  0  0
  134.6200  134.3100  160.5450 C   0  0  0  0  0  1  0  0  0  0  0  0
  135.9810  136.2930  151.8420 C   0  0  0  0  0  2  0  0  0  0  0  0
  137.3030  136.6880  152.2900 N   0  0  0  0  0  0  0  0  0  0  0  0
  138.1680  137.3590  151.4530 C   0  0  0  0  0  0  0  0  0  0  0  0
  137.8590  137.6930  150.3140 O   0  0  0  0  0  0  0  0  0  0  0  0
  137.5870  136.4730  153.2060 H   0  0  0  0  0  0  0  0  0  0  0  0
  139.5190  137.6730  151.9970 C   0  0  0  0  0  0  0  0  0  0  0  0
  139.7000  138.1580  153.2940 C   0  0  0  0  0  3  0  0  0  0  0  0
  140.9890  138.4180  153.7760 C   0  0  0  0  0  3  0  0  0  0  0  0
  142.1330  138.2000  152.9890 C   0  0  0  0  0  0  0  0  0  0  0  0
  141.9270  137.6970  151.6900 C   0  0  0  0  0  3  0  0  0  0  0  0
  140.6410  137.4350  151.2000 C   0  0  0  0  0  3  0  0  0  0  0  0
  143.5570  138.4770  153.5040 C   0  0  0  0  0  0  0  0  0  0  0  0
  144.4310  139.2720  152.5050 C   0  0  0  0  0  1  0  0  0  0  0  0
  143.4920  139.2980  154.8090 C   0  0  0  0  0  1  0  0  0  0  0  0
  144.2890  137.1470  153.7850 C   0  0  0  0  0  1  0  0  0  0  0  0
  1  5  1  0  0  0  0
  2  3  2  0  0  0  0
  2  1  1  0  0  0  0
  4  1  1  0  0  0  0
  5  9  1  0  0  0  0
  6 13  1  0  0  0  0
  7  6  2  0  0  0  0
  8  7  1  0  0  0  0
  9  8  2  0  0  0  0
  9 10  1  0  0  0  0
 10 11  2  0  0  0  0
 11  6  1  0  0  0  0
 11 14  1  0  0  0  0
 13 12  1  0  0  0  0
 14 15  1  0  0  0  0
 16 17  1  0  0  0  0
 16  2  1  0  0  0  0
 17 20  1  0  0  0  0
 18 21  1  0  0  0  0
 18 17  1  0  0  0  0
 19 18  2  0  0  0  0
 21 22  1  0  0  0  0
 22 23  2  0  0  0  0
 24 27  1  0  0  0  0
 24 23  1  0  0  0  0
 25 24  2  0  0  0  0
 26 25  1  0  0  0  0
 26 21  2  0  0  0  0
 27 30  1  0  0  0  0
 27 29  1  0  0  0  0
 28 27  1  0  0  0  0
M  END
>  <MODEL>
5

>  <REMARK>
 VINA RESULT:    -7.334      2.734      6.204
 INTER + INTRA:         -11.778
 INTER:                 -10.793
 INTRA:                  -0.984
 UNBOUND:                -1.013
  Name = CHEMBL1547128
  13 active torsions:
  status: ('A' for Active; 'I' for Inactive)
    1  A    between atoms: C_1  and  O_2
    2  A    between atoms: O_2  and  C_3
    3  A    between atoms: C_6  and  C_7
    4  A    between atoms: C_7  and  N_8
    5  A    between atoms: C_9  and  C_11
    6  A    between atoms: C_11  and  N_12
    7  A    between atoms: C_13  and  C_15
    8  A    between atoms: C_18  and  C_19
    9  A    between atoms: C_19  and  C_20
   10  A    between atoms: C_19  and  C_21
   11  A    between atoms: C_19  and  C_22
   12  A    between atoms: C_26  and  O_27
   13  A    between atoms: O_27  and  C_28
                            x       y       z     vdW  Elec       q    Type
                         _______ _______ _______ _____ _____    ______ ____

>  <TORSDO>
F 8

>  <SCORE>
-7.334

>  <RMSD_LB>
2.734

>  <RMSD_UB>
6.204

$$$$
CHEMBL1547128
 OpenBabel10172500323D

 30 31  0  0  0  0  0  0  0  0999 V2000
  134.6650  134.5150  151.6540 N   0  0  0  0  0  0  0  0  0  0  0  0
  133.9670  134.1430  150.5280 C   0  0  0  0  0  0  0  0  0  0  0  0
  132.7790  133.8270  150.5320 O   0  0  0  0  0  0  0  0  0  0  0  0
  135.5940  134.8230  151.5530 H   0  0  0  0  0  0  0  0  0  0  0  0
  134.0880  134.4710  152.9820 C   0  0  0  0  0  2  0  0  0  0  0  0
  136.6020  136.1160  156.1210 C   0  0  0  0  0  0  0  0  0  0  0  0
  136.9160  136.3250  154.7720 C   0  0  0  0  0  3  0  0  0  0  0  0
  136.1150  135.7980  153.7550 C   0  0  0  0  0  3  0  0  0  0  0  0
  134.9950  135.0180  154.0580 C   0  0  0  0  0  0  0  0  0  0  0  0
  134.6790  134.8130  155.4110 C   0  0  0  0  0  3  0  0  0  0  0  0
  135.4580  135.3630  156.4400 C   0  0  0  0  0  0  0  0  0  0  0  0
  138.2310  137.6760  156.8830 C   0  0  0  0  0  1  0  0  0  0  0  0
  137.4010  136.5500  157.1460 O   0  0  0  0  0  0  0  0  0  0  0  0
  135.0100  135.0540  157.7010 O   0  0  0  0  0  0  0  0  0  0  0  0
  133.7330  134.4260  157.7770 C   0  0  0  0  0  1  0  0  0  0  0  0
  134.7680  134.2380  149.2290 C   0  0  0  0  0  2  0  0  0  0  0  0
  136.1200  134.6890  149.4960 N   0  0  0  0  0  0  0  0  0  0  0  0
  136.4170  136.0300  149.5990 C   0  0  0  0  0  0  0  0  0  0  0  0
  135.5600  136.9040  149.5140 O   0  0  0  0  0  0  0  0  0  0  0  0
  136.8380  134.0260  149.6060 H   0  0  0  0  0  0  0  0  0  0  0  0
  137.8460  136.3870  149.8240 C   0  0  0  0  0  0  0  0  0  0  0  0
  138.2550  137.1420  150.9250 C   0  0  0  0  0  3  0  0  0  0  0  0
  139.6110  137.4360  151.1150 C   0  0  0  0  0  3  0  0  0  0  0  0
  140.5980  136.9840  150.2220 C   0  0  0  0  0  0  0  0  0  0  0  0
  140.1650  136.2120  149.1270 C   0  0  0  0  0  3  0  0  0  0  0  0
  138.8100  135.9140  148.9300 C   0  0  0  0  0  3  0  0  0  0  0  0
  142.0940  137.2940  150.4170 C   0  0  0  0  0  0  0  0  0  0  0  0
  143.0310  136.2270  149.8040 C   0  0  0  0  0  1  0  0  0  0  0  0
  142.4410  138.6440  149.7520 C   0  0  0  0  0  1  0  0  0  0  0  0
  142.4280  137.3770  151.9230 C   0  0  0  0  0  1  0  0  0  0  0  0
  1  5  1  0  0  0  0
  2  3  2  0  0  0  0
  2  1  1  0  0  0  0
  4  1  1  0  0  0  0
  5  9  1  0  0  0  0
  6 11  1  0  0  0  0
  6 13  1  0  0  0  0
  7  6  2  0  0  0  0
  8  9  2  0  0  0  0
  8  7  1  0  0  0  0
  9 10  1  0  0  0  0
 10 11  2  0  0  0  0
 11 14  1  0  0  0  0
 12 13  1  0  0  0  0
 14 15  1  0  0  0  0
 16 17  1  0  0  0  0
 16  2  1  0  0  0  0
 17 18  1  0  0  0  0
 17 20  1  0  0  0  0
 18 21  1  0  0  0  0
 19 18  2  0  0  0  0
 21 22  1  0  0  0  0
 22 23  2  0  0  0  0
 24 27  1  0  0  0  0
 24 23  1  0  0  0  0
 25 24  2  0  0  0  0
 26 25  1  0  0  0  0
 26 21  2  0  0  0  0
 27 30  1  0  0  0  0
 28 27  1  0  0  0  0
 29 27  1  0  0  0  0
M  END
>  <MODEL>
6

>  <REMARK>
 VINA RESULT:    -7.332      2.275      5.522
 INTER + INTRA:         -11.774
 INTER:                 -10.687
 INTRA:                  -1.087
 UNBOUND:                -1.013
  Name = CHEMBL1547128
  13 active torsions:
  status: ('A' for Active; 'I' for Inactive)
    1  A    between atoms: C_1  and  O_2
    2  A    between atoms: O_2  and  C_3
    3  A    between atoms: C_6  and  C_7
    4  A    between atoms: C_7  and  N_8
    5  A    between atoms: C_9  and  C_11
    6  A    between atoms: C_11  and  N_12
    7  A    between atoms: C_13  and  C_15
    8  A    between atoms: C_18  and  C_19
    9  A    between atoms: C_19  and  C_20
   10  A    between atoms: C_19  and  C_21
   11  A    between atoms: C_19  and  C_22
   12  A    between atoms: C_26  and  O_27
   13  A    between atoms: O_27  and  C_28
                            x       y       z     vdW  Elec       q    Type
                         _______ _______ _______ _____ _____    ______ ____

>  <TORSDO>
F 8

>  <SCORE>
-7.332

>  <RMSD_LB>
2.275

>  <RMSD_UB>
5.522

$$$$
CHEMBL1547128
 OpenBabel10172500323D

 30 31  0  0  0  0  0  0  0  0999 V2000
  133.1620  135.5270  147.6590 N   0  0  0  0  0  0  0  0  0  0  0  0
  133.8100  135.5850  148.8720 C   0  0  0  0  0  0  0  0  0  0  0  0
  135.0290  135.6790  148.9940 O   0  0  0  0  0  0  0  0  0  0  0  0
  132.1780  135.5240  147.6480 H   0  0  0  0  0  0  0  0  0  0  0  0
  133.8710  135.4690  146.3970 C   0  0  0  0  0  2  0  0  0  0  0  0
  133.9000  139.2980  144.3430 C   0  0  0  0  0  0  0  0  0  0  0  0
  132.8260  138.4120  144.1860 C   0  0  0  0  0  3  0  0  0  0  0  0
  132.8090  137.1770  144.8400 C   0  0  0  0  0  3  0  0  0  0  0  0
  133.8810  136.7790  145.6440 C   0  0  0  0  0  0  0  0  0  0  0  0
  134.9540  137.6700  145.8040 C   0  0  0  0  0  3  0  0  0  0  0  0
  134.9680  138.9250  145.1770 C   0  0  0  0  0  0  0  0  0  0  0  0
  134.1090  140.4040  142.2440 C   0  0  0  0  0  1  0  0  0  0  0  0
  133.9900  140.4830  143.6600 O   0  0  0  0  0  0  0  0  0  0  0  0
  136.0980  139.6620  145.4350 O   0  0  0  0  0  0  0  0  0  0  0  0
  137.1010  139.6490  144.4240 C   0  0  0  0  0  1  0  0  0  0  0  0
  132.8770  135.6100  150.0830 C   0  0  0  0  0  2  0  0  0  0  0  0
  133.6300  135.8380  151.3010 N   0  0  0  0  0  0  0  0  0  0  0  0
  134.0190  134.7880  152.1050 C   0  0  0  0  0  0  0  0  0  0  0  0
  133.7920  133.6180  151.8190 O   0  0  0  0  0  0  0  0  0  0  0  0
  133.8660  136.7570  151.5590 H   0  0  0  0  0  0  0  0  0  0  0  0
  134.7440  135.1360  153.3590 C   0  0  0  0  0  0  0  0  0  0  0  0
  134.3140  134.6910  154.6110 C   0  0  0  0  0  3  0  0  0  0  0  0
  135.0370  135.0200  155.7640 C   0  0  0  0  0  3  0  0  0  0  0  0
  136.2080  135.7950  155.7080 C   0  0  0  0  0  0  0  0  0  0  0  0
  136.6310  136.2210  154.4340 C   0  0  0  0  0  3  0  0  0  0  0  0
  135.9130  135.8960  153.2760 C   0  0  0  0  0  3  0  0  0  0  0  0
  137.0180  136.1620  156.9650 C   0  0  0  0  0  0  0  0  0  0  0  0
  136.4970  135.4840  158.2550 C   0  0  0  0  0  1  0  0  0  0  0  0
  138.4900  135.7340  156.7850 C   0  0  0  0  0  1  0  0  0  0  0  0
  136.9650  137.6870  157.2040 C   0  0  0  0  0  1  0  0  0  0  0  0
  1  2  1  0  0  0  0
  2  3  2  0  0  0  0
  2 16  1  0  0  0  0
  4  1  1  0  0  0  0
  5  1  1  0  0  0  0
  6 11  1  0  0  0  0
  7  6  2  0  0  0  0
  7  8  1  0  0  0  0
  8  9  2  0  0  0  0
  9 10  1  0  0  0  0
  9  5  1  0  0  0  0
 11 14  1  0  0  0  0
 11 10  2  0  0  0  0
 12 13  1  0  0  0  0
 13  6  1  0  0  0  0
 15 14  1  0  0  0  0
 16 17  1  0  0  0  0
 17 20  1  0  0  0  0
 17 18  1  0  0  0  0
 18 21  1  0  0  0  0
 19 18  2  0  0  0  0
 21 22  1  0  0  0  0
 22 23  2  0  0  0  0
 24 23  1  0  0  0  0
 24 27  1  0  0  0  0
 25 24  2  0  0  0  0
 26 21  2  0  0  0  0
 26 25  1  0  0  0  0
 27 30  1  0  0  0  0
 27 28  1  0  0  0  0
 29 27  1  0  0  0  0
M  END
>  <MODEL>
7

>  <REMARK>
 VINA RESULT:    -7.115      4.133      6.967
 INTER + INTRA:         -11.455
 INTER:                 -10.640
 INTRA:                  -0.816
 UNBOUND:                -1.013
  Name = CHEMBL1547128
  13 active torsions:
  status: ('A' for Active; 'I' for Inactive)
    1  A    between atoms: C_1  and  O_2
    2  A    between atoms: O_2  and  C_3
    3  A    between atoms: C_6  and  C_7
    4  A    between atoms: C_7  and  N_8
    5  A    between atoms: C_9  and  C_11
    6  A    between atoms: C_11  and  N_12
    7  A    between atoms: C_13  and  C_15
    8  A    between atoms: C_18  and  C_19
    9  A    between atoms: C_19  and  C_20
   10  A    between atoms: C_19  and  C_21
   11  A    between atoms: C_19  and  C_22
   12  A    between atoms: C_26  and  O_27
   13  A    between atoms: O_27  and  C_28
                            x       y       z     vdW  Elec       q    Type
                         _______ _______ _______ _____ _____    ______ ____

>  <TORSDO>
F 8

>  <SCORE>
-7.115

>  <RMSD_LB>
4.133

>  <RMSD_UB>
6.967

$$$$
CHEMBL1547128
 OpenBabel10172500323D

 30 31  0  0  0  0  0  0  0  0999 V2000
  141.7450  139.2580  151.0350 N   0  0  0  0  0  0  0  0  0  0  0  0
  140.7830  138.8000  151.9060 C   0  0  0  0  0  0  0  0  0  0  0  0
  141.0090  138.0240  152.8320 O   0  0  0  0  0  0  0  0  0  0  0  0
  141.4930  139.9330  150.3650 H   0  0  0  0  0  0  0  0  0  0  0  0
  143.1140  138.7860  151.0660 C   0  0  0  0  0  2  0  0  0  0  0  0
  145.8930  141.3360  153.2250 C   0  0  0  0  0  0  0  0  0  0  0  0
  145.3660  140.1850  153.8260 C   0  0  0  0  0  3  0  0  0  0  0  0
  144.4700  139.3600  153.1400 C   0  0  0  0  0  3  0  0  0  0  0  0
  144.0480  139.6800  151.8460 C   0  0  0  0  0  0  0  0  0  0  0  0
  144.5810  140.8320  151.2440 C   0  0  0  0  0  3  0  0  0  0  0  0
  145.5050  141.6510  151.9110 C   0  0  0  0  0  0  0  0  0  0  0  0
  148.0580  141.7980  154.1010 C   0  0  0  0  0  1  0  0  0  0  0  0
  146.7130  142.2100  153.8890 O   0  0  0  0  0  0  0  0  0  0  0  0
  145.9130  142.7380  151.1780 O   0  0  0  0  0  0  0  0  0  0  0  0
  146.4210  142.4630  149.8760 C   0  0  0  0  0  1  0  0  0  0  0  0
  139.3950  139.4050  151.6860 C   0  0  0  0  0  2  0  0  0  0  0  0
  138.4220  138.3640  151.4190 N   0  0  0  0  0  0  0  0  0  0  0  0
  138.0570  138.0430  150.1290 C   0  0  0  0  0  0  0  0  0  0  0  0
  138.5590  138.5820  149.1480 O   0  0  0  0  0  0  0  0  0  0  0  0
  138.0140  137.8790  152.1700 H   0  0  0  0  0  0  0  0  0  0  0  0
  137.0120  136.9940  149.9680 C   0  0  0  0  0  0  0  0  0  0  0  0
  136.0780  137.0330  148.9310 C   0  0  0  0  0  3  0  0  0  0  0  0
  135.1260  136.0150  148.7990 C   0  0  0  0  0  3  0  0  0  0  0  0
  135.0760  134.9280  149.6890 C   0  0  0  0  0  0  0  0  0  0  0  0
  136.0360  134.9020  150.7190 C   0  0  0  0  0  3  0  0  0  0  0  0
  136.9920  135.9170  150.8570 C   0  0  0  0  0  3  0  0  0  0  0  0
  134.0390  133.7980  149.5580 C   0  0  0  0  0  0  0  0  0  0  0  0
  132.7200  134.2460  148.8840 C   0  0  0  0  0  1  0  0  0  0  0  0
  134.6200  132.6490  148.7060 C   0  0  0  0  0  1  0  0  0  0  0  0
  133.6700  133.2490  150.9540 C   0  0  0  0  0  1  0  0  0  0  0  0
  1  5  1  0  0  0  0
  1  2  1  0  0  0  0
  2  3  2  0  0  0  0
  4  1  1  0  0  0  0
  5  9  1  0  0  0  0
  6  7  1  0  0  0  0
  6 13  1  0  0  0  0
  8  7  2  0  0  0  0
  9  8  1  0  0  0  0
 10  9  2  0  0  0  0
 10 11  1  0  0  0  0
 11  6  2  0  0  0  0
 13 12  1  0  0  0  0
 14 11  1  0  0  0  0
 15 14  1  0  0  0  0
 16  2  1  0  0  0  0
 17 16  1  0  0  0  0
 17 20  1  0  0  0  0
 18 17  1  0  0  0  0
 19 18  2  0  0  0  0
 21 18  1  0  0  0  0
 21 26  1  0  0  0  0
 22 21  2  0  0  0  0
 23 22  1  0  0  0  0
 23 24  2  0  0  0  0
 24 25  1  0  0  0  0
 25 26  2  0  0  0  0
 27 24  1  0  0  0  0
 27 30  1  0  0  0  0
 28 27  1  0  0  0  0
 29 27  1  0  0  0  0
M  END
>  <MODEL>
8

>  <REMARK>
 VINA RESULT:    -7.105      4.015     10.281
 INTER + INTRA:         -11.441
 INTER:                 -10.530
 INTRA:                  -0.910
 UNBOUND:                -1.013
  Name = CHEMBL1547128
  13 active torsions:
  status: ('A' for Active; 'I' for Inactive)
    1  A    between atoms: C_1  and  O_2
    2  A    between atoms: O_2  and  C_3
    3  A    between atoms: C_6  and  C_7
    4  A    between atoms: C_7  and  N_8
    5  A    between atoms: C_9  and  C_11
    6  A    between atoms: C_11  and  N_12
    7  A    between atoms: C_13  and  C_15
    8  A    between atoms: C_18  and  C_19
    9  A    between atoms: C_19  and  C_20
   10  A    between atoms: C_19  and  C_21
   11  A    between atoms: C_19  and  C_22
   12  A    between atoms: C_26  and  O_27
   13  A    between atoms: O_27  and  C_28
                            x       y       z     vdW  Elec       q    Type
                         _______ _______ _______ _____ _____    ______ ____

>  <TORSDO>
F 8

>  <SCORE>
-7.105

>  <RMSD_LB>
4.015

>  <RMSD_UB>
10.281

$$$$
CHEMBL1547128
 OpenBabel10172500323D

 30 31  0  0  0  0  0  0  0  0999 V2000
  145.2330  140.6520  153.7170 N   0  0  0  0  0  0  0  0  0  0  0  0
  144.8950  139.6980  154.6490 C   0  0  0  0  0  0  0  0  0  0  0  0
  145.6710  138.8400  155.0640 O   0  0  0  0  0  0  0  0  0  0  0  0
  144.5740  141.3470  153.4910 H   0  0  0  0  0  0  0  0  0  0  0  0
  146.5210  140.6740  153.0530 C   0  0  0  0  0  2  0  0  0  0  0  0
  146.6450  138.6830  149.1930 C   0  0  0  0  0  0  0  0  0  0  0  0
  146.4080  140.0610  149.2780 C   0  0  0  0  0  3  0  0  0  0  0  0
  146.3640  140.7110  150.5150 C   0  0  0  0  0  3  0  0  0  0  0  0
  146.5220  139.9940  151.7050 C   0  0  0  0  0  0  0  0  0  0  0  0
  146.7630  138.6130  151.6180 C   0  0  0  0  0  3  0  0  0  0  0  0
  146.8410  137.9570  150.3800 C   0  0  0  0  0  0  0  0  0  0  0  0
  147.8560  137.8680  147.3110 C   0  0  0  0  0  1  0  0  0  0  0  0
  146.6210  137.9980  148.0070 O   0  0  0  0  0  0  0  0  0  0  0  0
  147.0740  136.6070  150.4820 O   0  0  0  0  0  0  0  0  0  0  0  0
  146.1530  135.8700  151.2800 C   0  0  0  0  0  1  0  0  0  0  0  0
  143.4790  139.8370  155.2090 C   0  0  0  0  0  2  0  0  0  0  0  0
  142.5000  139.3900  154.2370 N   0  0  0  0  0  0  0  0  0  0  0  0
  141.3370  138.7670  154.6310 C   0  0  0  0  0  0  0  0  0  0  0  0
  141.0460  138.5970  155.8110 O   0  0  0  0  0  0  0  0  0  0  0  0
  142.6710  139.5330  153.2790 H   0  0  0  0  0  0  0  0  0  0  0  0
  140.4240  138.3020  153.5490 C   0  0  0  0  0  0  0  0  0  0  0  0
  139.0420  138.2210  153.7310 C   0  0  0  0  0  3  0  0  0  0  0  0
  138.2150  137.8010  152.6810 C   0  0  0  0  0  3  0  0  0  0  0  0
  138.7350  137.4560  151.4220 C   0  0  0  0  0  0  0  0  0  0  0  0
  140.1300  137.5590  151.2570 C   0  0  0  0  0  3  0  0  0  0  0  0
  140.9640  137.9780  152.3020 C   0  0  0  0  0  3  0  0  0  0  0  0
  137.8410  136.9970  150.2550 C   0  0  0  0  0  0  0  0  0  0  0  0
  137.3380  138.1600  149.3680 C   0  0  0  0  0  1  0  0  0  0  0  0
  138.6260  136.0310  149.3420 C   0  0  0  0  0  1  0  0  0  0  0  0
  136.5910  136.2700  150.7980 C   0  0  0  0  0  1  0  0  0  0  0  0
  1  2  1  0  0  0  0
  2  3  2  0  0  0  0
  2 16  1  0  0  0  0
  4  1  1  0  0  0  0
  5  1  1  0  0  0  0
  6  7  2  0  0  0  0
  6 11  1  0  0  0  0
  7  8  1  0  0  0  0
  8  9  2  0  0  0  0
  9  5  1  0  0  0  0
 10  9  1  0  0  0  0
 11 14  1  0  0  0  0
 11 10  2  0  0  0  0
 12 13  1  0  0  0  0
 13  6  1  0  0  0  0
 14 15  1  0  0  0  0
 17 18  1  0  0  0  0
 17 16  1  0  0  0  0
 18 19  2  0  0  0  0
 20 17  1  0  0  0  0
 21 22  1  0  0  0  0
 21 18  1  0  0  0  0
 23 22  2  0  0  0  0
 24 23  1  0  0  0  0
 25 24  2  0  0  0  0
 25 26  1  0  0  0  0
 26 21  2  0  0  0  0
 27 30  1  0  0  0  0
 27 24  1  0  0  0  0
 28 27  1  0  0  0  0
 29 27  1  0  0  0  0
M  END
>  <MODEL>
9

>  <REMARK>
 VINA RESULT:    -7.045      4.850      9.533
 INTER + INTRA:         -11.353
 INTER:                 -10.340
 INTRA:                  -1.013
 UNBOUND:                -1.013
  Name = CHEMBL1547128
  13 active torsions:
  status: ('A' for Active; 'I' for Inactive)
    1  A    between atoms: C_1  and  O_2
    2  A    between atoms: O_2  and  C_3
    3  A    between atoms: C_6  and  C_7
    4  A    between atoms: C_7  and  N_8
    5  A    between atoms: C_9  and  C_11
    6  A    between atoms: C_11  and  N_12
    7  A    between atoms: C_13  and  C_15
    8  A    between atoms: C_18  and  C_19
    9  A    between atoms: C_19  and  C_20
   10  A    between atoms: C_19  and  C_21
   11  A    between atoms: C_19  and  C_22
   12  A    between atoms: C_26  and  O_27
   13  A    between atoms: O_27  and  C_28
                            x       y       z     vdW  Elec       q    Type
                         _______ _______ _______ _____ _____    ______ ____

>  <TORSDO>
F 8

>  <SCORE>
-7.045

>  <RMSD_LB>
4.850

>  <RMSD_UB>
9.533

$$$$
