CHEMBL4897294
 OpenBabel10172500493D

 26 27  0  0  1  0  0  0  0  0999 V2000
  144.8890  139.6430  154.2380 C   0  0  0  0  0  0  0  0  0  0  0  0
  145.2720  139.2220  155.3310 O   0  0  0  0  0  0  0  0  0  0  0  0
  143.5420  139.6960  153.9400 N   0  0  0  0  0  0  0  0  0  0  0  0
  143.2290  140.1640  153.1330 H   0  0  0  0  0  0  0  0  0  0  0  0
  145.8520  140.1190  153.1250 C   0  0  2  0  0  3  0  0  0  0  0  0
  146.2970  141.6240  153.3010 C   0  0  0  0  0  0  0  0  0  0  0  0
  146.0120  142.5170  152.0670 C   0  0  0  0  0  2  0  0  0  0  0  0
  146.9070  142.2390  150.8610 C   0  0  0  0  0  2  0  0  0  0  0  0
  148.3930  142.2530  151.2070 C   0  0  0  0  0  2  0  0  0  0  0  0
  148.7220  141.4300  152.4460 C   0  0  0  0  0  2  0  0  0  0  0  0
  147.8090  141.7810  153.6170 C   0  0  0  0  0  2  0  0  0  0  0  0
  145.6000  142.2230  154.4020 O   0  0  0  0  0  0  0  0  0  0  0  0
  144.6450  142.1960  154.2330 H   0  0  0  0  0  0  0  0  0  0  0  0
  146.0040  138.6480  150.9590 C   0  0  0  0  0  1  0  0  0  0  0  0
  145.2740  139.7340  151.7370 C   0  0  0  0  0  2  0  0  0  0  0  0
  142.5940  139.0530  154.8320 C   0  0  0  0  0  2  0  0  0  0  0  0
  141.3270  138.5910  154.1580 C   0  0  0  0  0  0  0  0  0  0  0  0
  141.3530  138.0220  152.8800 C   0  0  0  0  0  3  0  0  0  0  0  0
  140.1590  137.7400  152.2080 C   0  0  0  0  0  3  0  0  0  0  0  0
  138.9250  138.0270  152.8010 C   0  0  0  0  0  0  0  0  0  0  0  0
  138.8730  138.5920  154.0800 C   0  0  0  0  0  0  0  0  0  0  0  0
  140.0790  138.8640  154.7430 C   0  0  0  0  0  3  0  0  0  0  0  0
  137.7870  137.7540  152.0930 O   0  0  0  0  0  0  0  0  0  0  0  0
  137.2440  138.4540  151.7920 H   0  0  0  0  0  0  0  0  0  0  0  0
  137.7730  138.9520  154.8100 O   0  0  0  0  0  0  0  0  0  0  0  0
  137.2940  138.0530  155.7990 C   0  0  0  0  0  1  0  0  0  0  0  0
  1  2  2  0  0  0  0
  3  1  1  0  0  0  0
  3 16  1  0  0  0  0
  4  3  1  0  0  0  0
  5 15  1  6  0  0  0
  5  6  1  0  0  0  0
  5  1  1  0  0  0  0
  6 11  1  0  0  0  0
  6 12  1  0  0  0  0
  7  6  1  0  0  0  0
  8  9  1  0  0  0  0
  8  7  1  0  0  0  0
  9 10  1  0  0  0  0
 10 11  1  0  0  0  0
 13 12  1  0  0  0  0
 14 15  1  0  0  0  0
 17 22  1  0  0  0  0
 17 16  1  0  0  0  0
 18 17  2  0  0  0  0
 19 20  2  0  0  0  0
 19 18  1  0  0  0  0
 20 21  1  0  0  0  0
 21 22  2  0  0  0  0
 21 25  1  0  0  0  0
 23 20  1  0  0  0  0
 24 23  1  0  0  0  0
 25 26  1  0  0  0  0
M  END
>  <MODEL>
1

>  <REMARK>
 VINA RESULT:    -7.716      0.000      0.000
 INTER + INTRA:         -12.164
 INTER:                 -11.191
 INTRA:                  -0.973
 UNBOUND:                -1.291
  Name = CHEMBL4897294
  10 active torsions:
  status: ('A' for Active; 'I' for Inactive)
    1  A    between atoms: C_1  and  C_2
    2  A    between atoms: C_2  and  C_3
    3  A    between atoms: C_3  and  C_4
    4  A    between atoms: C_3  and  C_17
    5  A    between atoms: N_6  and  C_7
    6  A    between atoms: C_7  and  C_8
    7  A    between atoms: C_11  and  O_12
    8  A    between atoms: C_13  and  O_14
    9  A    between atoms: O_14  and  C_15
   10  A    between atoms: C_17  and  O_18
                            x       y       z     vdW  Elec       q    Type
                         _______ _______ _______ _____ _____    ______ ____

>  <TORSDO>
F 8

>  <SCORE>
-7.716

>  <RMSD_LB>
0.000

>  <RMSD_UB>
0.000

$$$$
CHEMBL4897294
 OpenBabel10172500493D

 26 27  0  0  1  0  0  0  0  0999 V2000
  145.2700  139.5620  154.5230 C   0  0  0  0  0  0  0  0  0  0  0  0
  145.5070  139.0100  155.5990 O   0  0  0  0  0  0  0  0  0  0  0  0
  143.9680  139.8060  154.1320 N   0  0  0  0  0  0  0  0  0  0  0  0
  143.7800  140.3730  153.3500 H   0  0  0  0  0  0  0  0  0  0  0  0
  146.3710  140.0040  153.5320 C   0  0  2  0  0  3  0  0  0  0  0  0
  146.6460  141.5580  153.5720 C   0  0  0  0  0  0  0  0  0  0  0  0
  146.3760  142.2830  152.2290 C   0  0  0  0  0  2  0  0  0  0  0  0
  147.3920  141.9840  151.1300 C   0  0  0  0  0  2  0  0  0  0  0  0
  148.8350  142.1950  151.5790 C   0  0  0  0  0  2  0  0  0  0  0  0
  149.1410  141.5440  152.9210 C   0  0  0  0  0  2  0  0  0  0  0  0
  148.1030  141.9110  153.9770 C   0  0  0  0  0  2  0  0  0  0  0  0
  145.8030  142.1870  154.5470 O   0  0  0  0  0  0  0  0  0  0  0  0
  145.0070  141.6480  154.6800 H   0  0  0  0  0  0  0  0  0  0  0  0
  147.0090  138.2770  151.6620 C   0  0  0  0  0  1  0  0  0  0  0  0
  146.0870  139.3950  152.1330 C   0  0  0  0  0  2  0  0  0  0  0  0
  142.8790  139.2150  154.8900 C   0  0  0  0  0  2  0  0  0  0  0  0
  141.6770  138.8460  154.0600 C   0  0  0  0  0  0  0  0  0  0  0  0
  140.3770  139.0350  154.5440 C   0  0  0  0  0  3  0  0  0  0  0  0
  139.2780  138.5500  153.8280 C   0  0  0  0  0  3  0  0  0  0  0  0
  139.4630  137.8650  152.6220 C   0  0  0  0  0  0  0  0  0  0  0  0
  140.7510  137.6660  152.1150 C   0  0  0  0  0  0  0  0  0  0  0  0
  141.8430  138.1640  152.8430 C   0  0  0  0  0  3  0  0  0  0  0  0
  138.3570  137.3890  151.9720 O   0  0  0  0  0  0  0  0  0  0  0  0
  137.8010  137.9770  151.5020 H   0  0  0  0  0  0  0  0  0  0  0  0
  141.1280  137.0150  150.9720 O   0  0  0  0  0  0  0  0  0  0  0  0
  142.4900  137.0810  150.5750 C   0  0  0  0  0  1  0  0  0  0  0  0
  1  2  2  0  0  0  0
  3  1  1  0  0  0  0
  3 16  1  0  0  0  0
  4  3  1  0  0  0  0
  5 15  1  6  0  0  0
  5  6  1  0  0  0  0
  5  1  1  0  0  0  0
  6 11  1  0  0  0  0
  6 12  1  0  0  0  0
  7  6  1  0  0  0  0
  8  9  1  0  0  0  0
  8  7  1  0  0  0  0
  9 10  1  0  0  0  0
 10 11  1  0  0  0  0
 12 13  1  0  0  0  0
 14 15  1  0  0  0  0
 17 18  1  0  0  0  0
 17 16  1  0  0  0  0
 19 18  2  0  0  0  0
 20 19  1  0  0  0  0
 21 20  2  0  0  0  0
 21 22  1  0  0  0  0
 22 17  2  0  0  0  0
 23 20  1  0  0  0  0
 24 23  1  0  0  0  0
 25 21  1  0  0  0  0
 26 25  1  0  0  0  0
M  END
>  <MODEL>
2

>  <REMARK>
 VINA RESULT:    -7.093      1.105      2.244
 INTER + INTRA:         -11.287
 INTER:                 -10.367
 INTRA:                  -0.919
 UNBOUND:                -1.291
  Name = CHEMBL4897294
  10 active torsions:
  status: ('A' for Active; 'I' for Inactive)
    1  A    between atoms: C_1  and  C_2
    2  A    between atoms: C_2  and  C_3
    3  A    between atoms: C_3  and  C_4
    4  A    between atoms: C_3  and  C_17
    5  A    between atoms: N_6  and  C_7
    6  A    between atoms: C_7  and  C_8
    7  A    between atoms: C_11  and  O_12
    8  A    between atoms: C_13  and  O_14
    9  A    between atoms: O_14  and  C_15
   10  A    between atoms: C_17  and  O_18
                            x       y       z     vdW  Elec       q    Type
                         _______ _______ _______ _____ _____    ______ ____

>  <TORSDO>
F 8

>  <SCORE>
-7.093

>  <RMSD_LB>
1.105

>  <RMSD_UB>
2.244

$$$$
CHEMBL4897294
 OpenBabel10172500493D

 26 27  0  0  1  0  0  0  0  0999 V2000
  144.7650  138.3820  152.1870 C   0  0  0  0  0  0  0  0  0  0  0  0
  145.0580  137.2430  152.5570 O   0  0  0  0  0  0  0  0  0  0  0  0
  143.4900  138.6680  151.7430 N   0  0  0  0  0  0  0  0  0  0  0  0
  143.2140  139.6000  151.5880 H   0  0  0  0  0  0  0  0  0  0  0  0
  145.7710  139.5560  152.1700 C   0  0  2  0  0  3  0  0  0  0  0  0
  145.8170  140.3450  153.5380 C   0  0  0  0  0  0  0  0  0  0  0  0
  146.2830  141.8170  153.4030 C   0  0  0  0  0  2  0  0  0  0  0  0
  147.7670  141.9870  153.0860 C   0  0  0  0  0  2  0  0  0  0  0  0
  148.6730  141.2180  154.0430 C   0  0  0  0  0  2  0  0  0  0  0  0
  148.2290  139.7760  154.2510 C   0  0  0  0  0  2  0  0  0  0  0  0
  146.7450  139.6850  154.5930 C   0  0  0  0  0  2  0  0  0  0  0  0
  144.5120  140.3870  154.1310 O   0  0  0  0  0  0  0  0  0  0  0  0
  144.4640  139.7380  154.8510 H   0  0  0  0  0  0  0  0  0  0  0  0
  146.6300  140.3440  149.8200 C   0  0  0  0  0  1  0  0  0  0  0  0
  145.5510  140.4110  150.8940 C   0  0  0  0  0  2  0  0  0  0  0  0
  142.5610  137.5770  151.5060 C   0  0  0  0  0  2  0  0  0  0  0  0
  141.2650  137.6930  152.2660 C   0  0  0  0  0  0  0  0  0  0  0  0
  140.0320  137.6110  151.6100 C   0  0  0  0  0  3  0  0  0  0  0  0
  138.8440  137.8700  152.3020 C   0  0  0  0  0  3  0  0  0  0  0  0
  138.8730  138.2210  153.6560 C   0  0  0  0  0  0  0  0  0  0  0  0
  140.0930  138.3050  154.3350 C   0  0  0  0  0  0  0  0  0  0  0  0
  141.2750  138.0360  153.6290 C   0  0  0  0  0  3  0  0  0  0  0  0
  137.6870  138.4880  154.2820 O   0  0  0  0  0  0  0  0  0  0  0  0
  137.0810  139.0910  153.8990 H   0  0  0  0  0  0  0  0  0  0  0  0
  140.3220  138.6430  155.6420 O   0  0  0  0  0  0  0  0  0  0  0  0
  140.2690  137.6190  156.6240 C   0  0  0  0  0  1  0  0  0  0  0  0
  1  2  2  0  0  0  0
  3  1  1  0  0  0  0
  4  3  1  0  0  0  0
  5 15  1  6  0  0  0
  5  1  1  0  0  0  0
  5  6  1  0  0  0  0
  6 12  1  0  0  0  0
  6 11  1  0  0  0  0
  7  6  1  0  0  0  0
  8  7  1  0  0  0  0
  8  9  1  0  0  0  0
  9 10  1  0  0  0  0
 10 11  1  0  0  0  0
 12 13  1  0  0  0  0
 14 15  1  0  0  0  0
 16  3  1  0  0  0  0
 16 17  1  0  0  0  0
 17 22  1  0  0  0  0
 18 17  2  0  0  0  0
 18 19  1  0  0  0  0
 19 20  2  0  0  0  0
 20 23  1  0  0  0  0
 20 21  1  0  0  0  0
 21 25  1  0  0  0  0
 22 21  2  0  0  0  0
 24 23  1  0  0  0  0
 25 26  1  0  0  0  0
M  END
>  <MODEL>
3

>  <REMARK>
 VINA RESULT:    -6.935      1.589      2.265
 INTER + INTRA:         -11.064
 INTER:                  -9.885
 INTRA:                  -1.179
 UNBOUND:                -1.291
  Name = CHEMBL4897294
  10 active torsions:
  status: ('A' for Active; 'I' for Inactive)
    1  A    between atoms: C_1  and  C_2
    2  A    between atoms: C_2  and  C_3
    3  A    between atoms: C_3  and  C_4
    4  A    between atoms: C_3  and  C_17
    5  A    between atoms: N_6  and  C_7
    6  A    between atoms: C_7  and  C_8
    7  A    between atoms: C_11  and  O_12
    8  A    between atoms: C_13  and  O_14
    9  A    between atoms: O_14  and  C_15
   10  A    between atoms: C_17  and  O_18
                            x       y       z     vdW  Elec       q    Type
                         _______ _______ _______ _____ _____    ______ ____

>  <TORSDO>
F 8

>  <SCORE>
-6.935

>  <RMSD_LB>
1.589

>  <RMSD_UB>
2.265

$$$$
CHEMBL4897294
 OpenBabel10172500493D

 26 27  0  0  1  0  0  0  0  0999 V2000
  137.3200  135.8970  150.2330 C   0  0  0  0  0  0  0  0  0  0  0  0
  137.9370  135.3210  149.3360 O   0  0  0  0  0  0  0  0  0  0  0  0
  137.8730  136.9880  150.8750 N   0  0  0  0  0  0  0  0  0  0  0  0
  137.3290  137.5360  151.4840 H   0  0  0  0  0  0  0  0  0  0  0  0
  135.9210  135.4580  150.7230 C   0  0  2  0  0  3  0  0  0  0  0  0
  134.7730  135.8070  149.6960 C   0  0  0  0  0  0  0  0  0  0  0  0
  133.4190  136.1660  150.3590 C   0  0  0  0  0  2  0  0  0  0  0  0
  132.6910  134.9840  150.9970 C   0  0  0  0  0  2  0  0  0  0  0  0
  132.5320  133.8000  150.0480 C   0  0  0  0  0  2  0  0  0  0  0  0
  133.8250  133.4370  149.3300 C   0  0  0  0  0  2  0  0  0  0  0  0
  134.4810  134.6590  148.6930 C   0  0  0  0  0  2  0  0  0  0  0  0
  135.1460  136.9400  148.9010 O   0  0  0  0  0  0  0  0  0  0  0  0
  134.6710  136.9110  148.0550 H   0  0  0  0  0  0  0  0  0  0  0  0
  135.6990  134.8750  153.2720 C   0  0  0  0  0  1  0  0  0  0  0  0
  135.7050  135.9400  152.1820 C   0  0  0  0  0  2  0  0  0  0  0  0
  139.2680  137.3160  150.6390 C   0  0  0  0  0  2  0  0  0  0  0  0
  140.0350  137.6880  151.8810 C   0  0  0  0  0  0  0  0  0  0  0  0
  141.4240  137.5350  151.9480 C   0  0  0  0  0  3  0  0  0  0  0  0
  142.1010  137.7400  153.1540 C   0  0  0  0  0  3  0  0  0  0  0  0
  141.3990  138.0950  154.3110 C   0  0  0  0  0  0  0  0  0  0  0  0
  140.0100  138.2590  154.2700 C   0  0  0  0  0  0  0  0  0  0  0  0
  139.3460  138.0540  153.0500 C   0  0  0  0  0  3  0  0  0  0  0  0
  142.1040  138.2610  155.4710 O   0  0  0  0  0  0  0  0  0  0  0  0
  141.8320  137.8200  156.2510 H   0  0  0  0  0  0  0  0  0  0  0  0
  139.1580  138.5850  155.2890 O   0  0  0  0  0  0  0  0  0  0  0  0
  137.7620  138.4420  155.0750 C   0  0  0  0  0  1  0  0  0  0  0  0
  1  5  1  0  0  0  0
  1  3  1  0  0  0  0
  2  1  2  0  0  0  0
  3  4  1  0  0  0  0
  5 15  1  1  0  0  0
  6  7  1  0  0  0  0
  6  5  1  0  0  0  0
  7  8  1  0  0  0  0
  9  8  1  0  0  0  0
 10  9  1  0  0  0  0
 11 10  1  0  0  0  0
 11  6  1  0  0  0  0
 12  6  1  0  0  0  0
 13 12  1  0  0  0  0
 15 14  1  0  0  0  0
 16  3  1  0  0  0  0
 16 17  1  0  0  0  0
 17 18  2  0  0  0  0
 17 22  1  0  0  0  0
 18 19  1  0  0  0  0
 19 20  2  0  0  0  0
 20 23  1  0  0  0  0
 21 20  1  0  0  0  0
 21 25  1  0  0  0  0
 22 21  2  0  0  0  0
 23 24  1  0  0  0  0
 26 25  1  0  0  0  0
M  END
>  <MODEL>
4

>  <REMARK>
 VINA RESULT:    -6.781      4.528     10.147
 INTER + INTRA:         -10.847
 INTER:                  -9.677
 INTRA:                  -1.170
 UNBOUND:                -1.291
  Name = CHEMBL4897294
  10 active torsions:
  status: ('A' for Active; 'I' for Inactive)
    1  A    between atoms: C_1  and  C_2
    2  A    between atoms: C_2  and  C_3
    3  A    between atoms: C_3  and  C_4
    4  A    between atoms: C_3  and  C_17
    5  A    between atoms: N_6  and  C_7
    6  A    between atoms: C_7  and  C_8
    7  A    between atoms: C_11  and  O_12
    8  A    between atoms: C_13  and  O_14
    9  A    between atoms: O_14  and  C_15
   10  A    between atoms: C_17  and  O_18
                            x       y       z     vdW  Elec       q    Type
                         _______ _______ _______ _____ _____    ______ ____

>  <TORSDO>
F 8

>  <SCORE>
-6.781

>  <RMSD_LB>
4.528

>  <RMSD_UB>
10.147

$$$$
CHEMBL4897294
 OpenBabel10172500493D

 26 27  0  0  1  0  0  0  0  0999 V2000
  144.0070  138.9930  153.0240 C   0  0  0  0  0  0  0  0  0  0  0  0
  144.2720  137.9670  153.6540 O   0  0  0  0  0  0  0  0  0  0  0  0
  142.6950  139.3500  152.7860 N   0  0  0  0  0  0  0  0  0  0  0  0
  142.4790  140.2360  152.4150 H   0  0  0  0  0  0  0  0  0  0  0  0
  145.0850  139.9370  152.4420 C   0  0  2  0  0  3  0  0  0  0  0  0
  145.8760  140.7270  153.5570 C   0  0  0  0  0  0  0  0  0  0  0  0
  146.3120  142.1530  153.1320 C   0  0  0  0  0  2  0  0  0  0  0  0
  147.4360  142.1920  152.1000 C   0  0  0  0  0  2  0  0  0  0  0  0
  148.6460  141.3530  152.5040 C   0  0  0  0  0  2  0  0  0  0  0  0
  148.2670  139.9560  152.9790 C   0  0  0  0  0  2  0  0  0  0  0  0
  147.1610  139.9960  154.0290 C   0  0  0  0  0  2  0  0  0  0  0  0
  145.0610  140.8860  154.7260 O   0  0  0  0  0  0  0  0  0  0  0  0
  144.9850  141.8300  154.9410 H   0  0  0  0  0  0  0  0  0  0  0  0
  144.8500  140.4250  149.8750 C   0  0  0  0  0  1  0  0  0  0  0  0
  144.4680  140.7920  151.3030 C   0  0  0  0  0  2  0  0  0  0  0  0
  141.6370  138.4030  153.0910 C   0  0  0  0  0  2  0  0  0  0  0  0
  141.0740  137.6950  151.8860 C   0  0  0  0  0  0  0  0  0  0  0  0
  141.9130  137.0790  150.9520 C   0  0  0  0  0  3  0  0  0  0  0  0
  141.3880  136.5600  149.7640 C   0  0  0  0  0  3  0  0  0  0  0  0
  140.0190  136.6540  149.4920 C   0  0  0  0  0  0  0  0  0  0  0  0
  139.1580  137.2610  150.4130 C   0  0  0  0  0  0  0  0  0  0  0  0
  139.7000  137.7720  151.6020 C   0  0  0  0  0  3  0  0  0  0  0  0
  139.5580  136.1510  148.3060 O   0  0  0  0  0  0  0  0  0  0  0  0
  139.8280  135.3020  148.0210 H   0  0  0  0  0  0  0  0  0  0  0  0
  137.8070  137.4570  150.3180 O   0  0  0  0  0  0  0  0  0  0  0  0
  137.3300  138.4530  149.4260 C   0  0  0  0  0  1  0  0  0  0  0  0
  1  2  2  0  0  0  0
  3  1  1  0  0  0  0
  3 16  1  0  0  0  0
  4  3  1  0  0  0  0
  5 15  1  6  0  0  0
  5  1  1  0  0  0  0
  5  6  1  0  0  0  0
  6 11  1  0  0  0  0
  6 12  1  0  0  0  0
  7  6  1  0  0  0  0
  8  9  1  0  0  0  0
  8  7  1  0  0  0  0
  9 10  1  0  0  0  0
 10 11  1  0  0  0  0
 12 13  1  0  0  0  0
 14 15  1  0  0  0  0
 17 16  1  0  0  0  0
 18 17  2  0  0  0  0
 19 18  1  0  0  0  0
 20 19  2  0  0  0  0
 20 21  1  0  0  0  0
 21 22  2  0  0  0  0
 22 17  1  0  0  0  0
 23 20  1  0  0  0  0
 24 23  1  0  0  0  0
 25 21  1  0  0  0  0
 26 25  1  0  0  0  0
M  END
>  <MODEL>
5

>  <REMARK>
 VINA RESULT:    -6.595      2.020      2.815
 INTER + INTRA:         -10.584
 INTER:                  -9.492
 INTRA:                  -1.092
 UNBOUND:                -1.291
  Name = CHEMBL4897294
  10 active torsions:
  status: ('A' for Active; 'I' for Inactive)
    1  A    between atoms: C_1  and  C_2
    2  A    between atoms: C_2  and  C_3
    3  A    between atoms: C_3  and  C_4
    4  A    between atoms: C_3  and  C_17
    5  A    between atoms: N_6  and  C_7
    6  A    between atoms: C_7  and  C_8
    7  A    between atoms: C_11  and  O_12
    8  A    between atoms: C_13  and  O_14
    9  A    between atoms: O_14  and  C_15
   10  A    between atoms: C_17  and  O_18
                            x       y       z     vdW  Elec       q    Type
                         _______ _______ _______ _____ _____    ______ ____

>  <TORSDO>
F 8

>  <SCORE>
-6.595

>  <RMSD_LB>
2.020

>  <RMSD_UB>
2.815

$$$$
CHEMBL4897294
 OpenBabel10172500493D

 26 27  0  0  1  0  0  0  0  0999 V2000
  144.6780  139.9130  151.3190 C   0  0  0  0  0  0  0  0  0  0  0  0
  143.7010  140.5400  150.9050 O   0  0  0  0  0  0  0  0  0  0  0  0
  144.5090  138.7710  152.0750 N   0  0  0  0  0  0  0  0  0  0  0  0
  145.2770  138.1920  152.2810 H   0  0  0  0  0  0  0  0  0  0  0  0
  146.1390  140.3440  151.0530 C   0  0  2  0  0  3  0  0  0  0  0  0
  146.4020  141.8650  151.3860 C   0  0  0  0  0  0  0  0  0  0  0  0
  147.8420  142.3420  151.0690 C   0  0  0  0  0  2  0  0  0  0  0  0
  148.9130  141.8000  152.0120 C   0  0  0  0  0  2  0  0  0  0  0  0
  148.5800  142.0240  153.4840 C   0  0  0  0  0  2  0  0  0  0  0  0
  147.1560  141.6180  153.8390 C   0  0  0  0  0  2  0  0  0  0  0  0
  146.1390  142.2190  152.8740 C   0  0  0  0  0  2  0  0  0  0  0  0
  145.5220  142.7000  150.6210 O   0  0  0  0  0  0  0  0  0  0  0  0
  145.3880  142.3080  149.7430 H   0  0  0  0  0  0  0  0  0  0  0  0
  146.7380  138.3650  149.4380 C   0  0  0  0  0  1  0  0  0  0  0  0
  146.5750  139.8660  149.6420 C   0  0  0  0  0  2  0  0  0  0  0  0
  143.1830  138.4340  152.5640 C   0  0  0  0  0  2  0  0  0  0  0  0
  142.3450  137.6500  151.5880 C   0  0  0  0  0  0  0  0  0  0  0  0
  142.9370  136.8690  150.5890 C   0  0  0  0  0  3  0  0  0  0  0  0
  142.1510  136.2700  149.6000 C   0  0  0  0  0  3  0  0  0  0  0  0
  140.7630  136.4490  149.5920 C   0  0  0  0  0  0  0  0  0  0  0  0
  140.1470  137.2210  150.5820 C   0  0  0  0  0  0  0  0  0  0  0  0
  140.9490  137.8110  151.5700 C   0  0  0  0  0  3  0  0  0  0  0  0
  140.0400  135.8620  148.5890 O   0  0  0  0  0  0  0  0  0  0  0  0
  139.7680  134.9700  148.6690 H   0  0  0  0  0  0  0  0  0  0  0  0
  138.8190  137.5190  150.7300 O   0  0  0  0  0  0  0  0  0  0  0  0
  138.3120  138.6830  150.0950 C   0  0  0  0  0  1  0  0  0  0  0  0
  1  3  1  0  0  0  0
  2  1  2  0  0  0  0
  3  4  1  0  0  0  0
  3 16  1  0  0  0  0
  5 15  1  6  0  0  0
  5  1  1  0  0  0  0
  5  6  1  0  0  0  0
  6 11  1  0  0  0  0
  7  6  1  0  0  0  0
  7  8  1  0  0  0  0
  8  9  1  0  0  0  0
  9 10  1  0  0  0  0
 11 10  1  0  0  0  0
 12  6  1  0  0  0  0
 13 12  1  0  0  0  0
 14 15  1  0  0  0  0
 17 16  1  0  0  0  0
 18 17  2  0  0  0  0
 19 18  1  0  0  0  0
 20 19  2  0  0  0  0
 20 21  1  0  0  0  0
 21 25  1  0  0  0  0
 21 22  2  0  0  0  0
 22 17  1  0  0  0  0
 23 24  1  0  0  0  0
 23 20  1  0  0  0  0
 26 25  1  0  0  0  0
M  END
>  <MODEL>
6

>  <REMARK>
 VINA RESULT:    -6.573      2.634      3.281
 INTER + INTRA:         -10.553
 INTER:                  -9.515
 INTRA:                  -1.038
 UNBOUND:                -1.291
  Name = CHEMBL4897294
  10 active torsions:
  status: ('A' for Active; 'I' for Inactive)
    1  A    between atoms: C_1  and  C_2
    2  A    between atoms: C_2  and  C_3
    3  A    between atoms: C_3  and  C_4
    4  A    between atoms: C_3  and  C_17
    5  A    between atoms: N_6  and  C_7
    6  A    between atoms: C_7  and  C_8
    7  A    between atoms: C_11  and  O_12
    8  A    between atoms: C_13  and  O_14
    9  A    between atoms: O_14  and  C_15
   10  A    between atoms: C_17  and  O_18
                            x       y       z     vdW  Elec       q    Type
                         _______ _______ _______ _____ _____    ______ ____

>  <TORSDO>
F 8

>  <SCORE>
-6.573

>  <RMSD_LB>
2.634

>  <RMSD_UB>
3.281

$$$$
CHEMBL4897294
 OpenBabel10172500493D

 26 27  0  0  1  0  0  0  0  0999 V2000
  144.6780  139.9110  151.4070 C   0  0  0  0  0  0  0  0  0  0  0  0
  143.7620  140.6870  151.1290 O   0  0  0  0  0  0  0  0  0  0  0  0
  144.4050  138.6580  151.9160 N   0  0  0  0  0  0  0  0  0  0  0  0
  145.1200  137.9870  152.0000 H   0  0  0  0  0  0  0  0  0  0  0  0
  146.1740  140.2640  151.2350 C   0  0  2  0  0  3  0  0  0  0  0  0
  146.4790  141.7910  151.5000 C   0  0  0  0  0  0  0  0  0  0  0  0
  147.9300  142.2140  151.1570 C   0  0  0  0  0  2  0  0  0  0  0  0
  148.9910  141.6840  152.1190 C   0  0  0  0  0  2  0  0  0  0  0  0
  148.6710  141.9810  153.5810 C   0  0  0  0  0  2  0  0  0  0  0  0
  147.2380  141.6300  153.9590 C   0  0  0  0  0  2  0  0  0  0  0  0
  146.2330  142.2170  152.9720 C   0  0  0  0  0  2  0  0  0  0  0  0
  145.6190  142.6150  150.7020 O   0  0  0  0  0  0  0  0  0  0  0  0
  145.9380  143.5320  150.7230 H   0  0  0  0  0  0  0  0  0  0  0  0
  145.8380  139.9230  148.6560 C   0  0  0  0  0  1  0  0  0  0  0  0
  146.6950  139.6840  149.8930 C   0  0  0  0  0  2  0  0  0  0  0  0
  143.0480  138.3400  152.3260 C   0  0  0  0  0  2  0  0  0  0  0  0
  142.1930  137.7530  151.2330 C   0  0  0  0  0  0  0  0  0  0  0  0
  140.7960  137.7930  151.3060 C   0  0  0  0  0  3  0  0  0  0  0  0
  140.0180  137.1120  150.3640 C   0  0  0  0  0  3  0  0  0  0  0  0
  140.6260  136.3790  149.3390 C   0  0  0  0  0  0  0  0  0  0  0  0
  142.0200  136.3270  149.2410 C   0  0  0  0  0  0  0  0  0  0  0  0
  142.7860  137.0190  150.1910 C   0  0  0  0  0  3  0  0  0  0  0  0
  139.8220  135.7120  148.4560 O   0  0  0  0  0  0  0  0  0  0  0  0
  139.4690  136.1600  147.7130 H   0  0  0  0  0  0  0  0  0  0  0  0
  142.7880  135.6580  148.3270 O   0  0  0  0  0  0  0  0  0  0  0  0
  143.0910  134.2930  148.5690 C   0  0  0  0  0  1  0  0  0  0  0  0
  1  3  1  0  0  0  0
  2  1  2  0  0  0  0
  3  4  1  0  0  0  0
  3 16  1  0  0  0  0
  5 15  1  6  0  0  0
  5  1  1  0  0  0  0
  5  6  1  0  0  0  0
  6 11  1  0  0  0  0
  7  6  1  0  0  0  0
  7  8  1  0  0  0  0
  8  9  1  0  0  0  0
  9 10  1  0  0  0  0
 11 10  1  0  0  0  0
 12 13  1  0  0  0  0
 12  6  1  0  0  0  0
 14 15  1  0  0  0  0
 17 18  1  0  0  0  0
 17 16  1  0  0  0  0
 19 18  2  0  0  0  0
 20 19  1  0  0  0  0
 21 20  2  0  0  0  0
 21 22  1  0  0  0  0
 22 17  2  0  0  0  0
 23 20  1  0  0  0  0
 24 23  1  0  0  0  0
 25 26  1  0  0  0  0
 25 21  1  0  0  0  0
M  END
>  <MODEL>
7

>  <REMARK>
 VINA RESULT:    -6.396      3.059      4.193
 INTER + INTRA:         -10.303
 INTER:                  -9.306
 INTRA:                  -0.998
 UNBOUND:                -1.291
  Name = CHEMBL4897294
  10 active torsions:
  status: ('A' for Active; 'I' for Inactive)
    1  A    between atoms: C_1  and  C_2
    2  A    between atoms: C_2  and  C_3
    3  A    between atoms: C_3  and  C_4
    4  A    between atoms: C_3  and  C_17
    5  A    between atoms: N_6  and  C_7
    6  A    between atoms: C_7  and  C_8
    7  A    between atoms: C_11  and  O_12
    8  A    between atoms: C_13  and  O_14
    9  A    between atoms: O_14  and  C_15
   10  A    between atoms: C_17  and  O_18
                            x       y       z     vdW  Elec       q    Type
                         _______ _______ _______ _____ _____    ______ ____

>  <TORSDO>
F 8

>  <SCORE>
-6.396

>  <RMSD_LB>
3.059

>  <RMSD_UB>
4.193

$$$$
CHEMBL4897294
 OpenBabel10172500493D

 26 27  0  0  1  0  0  0  0  0999 V2000
  134.8270  136.2710  145.3430 C   0  0  0  0  0  0  0  0  0  0  0  0
  135.3720  137.1380  146.0270 O   0  0  0  0  0  0  0  0  0  0  0  0
  133.5160  135.9100  145.5840 N   0  0  0  0  0  0  0  0  0  0  0  0
  133.0350  135.3290  144.9520 H   0  0  0  0  0  0  0  0  0  0  0  0
  135.5400  135.5160  144.1980 C   0  0  2  0  0  3  0  0  0  0  0  0
  136.7400  134.6220  144.7050 C   0  0  0  0  0  0  0  0  0  0  0  0
  137.6180  134.0400  143.5690 C   0  0  0  0  0  2  0  0  0  0  0  0
  136.9500  132.9370  142.7510 C   0  0  0  0  0  2  0  0  0  0  0  0
  136.3720  131.8200  143.6150 C   0  0  0  0  0  2  0  0  0  0  0  0
  135.5390  132.3410  144.7800 C   0  0  0  0  0  2  0  0  0  0  0  0
  136.2810  133.4170  145.5680 C   0  0  0  0  0  2  0  0  0  0  0  0
  137.6160  135.3930  145.5380 O   0  0  0  0  0  0  0  0  0  0  0  0
  137.3870  136.3330  145.4640 H   0  0  0  0  0  0  0  0  0  0  0  0
  134.7360  137.4190  142.5800 C   0  0  0  0  0  1  0  0  0  0  0  0
  135.8620  136.5030  143.0440 C   0  0  0  0  0  2  0  0  0  0  0  0
  132.8560  136.3980  146.7820 C   0  0  0  0  0  2  0  0  0  0  0  0
  133.0450  135.5210  147.9930 C   0  0  0  0  0  0  0  0  0  0  0  0
  132.7740  134.1500  147.9430 C   0  0  0  0  0  3  0  0  0  0  0  0
  132.8070  133.3790  149.1090 C   0  0  0  0  0  3  0  0  0  0  0  0
  133.1060  133.9690  150.3420 C   0  0  0  0  0  0  0  0  0  0  0  0
  133.3850  135.3380  150.4180 C   0  0  0  0  0  0  0  0  0  0  0  0
  133.3520  136.0960  149.2380 C   0  0  0  0  0  3  0  0  0  0  0  0
  133.1030  133.1770  151.4570 O   0  0  0  0  0  0  0  0  0  0  0  0
  132.3270  133.1020  151.9750 H   0  0  0  0  0  0  0  0  0  0  0  0
  133.6810  136.0890  151.5230 O   0  0  0  0  0  0  0  0  0  0  0  0
  135.0170  136.0840  152.0050 C   0  0  0  0  0  1  0  0  0  0  0  0
  1  3  1  0  0  0  0
  1  2  2  0  0  0  0
  3 16  1  0  0  0  0
  4  3  1  0  0  0  0
  5 15  1  6  0  0  0
  5  6  1  0  0  0  0
  5  1  1  0  0  0  0
  6 12  1  0  0  0  0
  6 11  1  0  0  0  0
  7  6  1  0  0  0  0
  8  7  1  0  0  0  0
  8  9  1  0  0  0  0
  9 10  1  0  0  0  0
 10 11  1  0  0  0  0
 13 12  1  0  0  0  0
 14 15  1  0  0  0  0
 16 17  1  0  0  0  0
 17 22  1  0  0  0  0
 18 17  2  0  0  0  0
 18 19  1  0  0  0  0
 19 20  2  0  0  0  0
 20 21  1  0  0  0  0
 20 23  1  0  0  0  0
 21 25  1  0  0  0  0
 22 21  2  0  0  0  0
 23 24  1  0  0  0  0
 25 26  1  0  0  0  0
M  END
>  <MODEL>
8

>  <REMARK>
 VINA RESULT:    -6.393     10.484     12.655
 INTER + INTRA:         -10.300
 INTER:                  -9.009
 INTRA:                  -1.291
 UNBOUND:                -1.291
  Name = CHEMBL4897294
  10 active torsions:
  status: ('A' for Active; 'I' for Inactive)
    1  A    between atoms: C_1  and  C_2
    2  A    between atoms: C_2  and  C_3
    3  A    between atoms: C_3  and  C_4
    4  A    between atoms: C_3  and  C_17
    5  A    between atoms: N_6  and  C_7
    6  A    between atoms: C_7  and  C_8
    7  A    between atoms: C_11  and  O_12
    8  A    between atoms: C_13  and  O_14
    9  A    between atoms: O_14  and  C_15
   10  A    between atoms: C_17  and  O_18
                            x       y       z     vdW  Elec       q    Type
                         _______ _______ _______ _____ _____    ______ ____

>  <TORSDO>
F 8

>  <SCORE>
-6.393

>  <RMSD_LB>
10.484

>  <RMSD_UB>
12.655

$$$$
CHEMBL4897294
 OpenBabel10172500493D

 26 27  0  0  1  0  0  0  0  0999 V2000
  145.7520  140.1380  148.9720 C   0  0  0  0  0  0  0  0  0  0  0  0
  146.8670  139.8190  148.5550 O   0  0  0  0  0  0  0  0  0  0  0  0
  145.5220  141.4100  149.4560 N   0  0  0  0  0  0  0  0  0  0  0  0
  144.6050  141.7110  149.6510 H   0  0  0  0  0  0  0  0  0  0  0  0
  144.5480  139.1680  149.0080 C   0  0  2  0  0  3  0  0  0  0  0  0
  144.8210  137.8820  149.8840 C   0  0  0  0  0  0  0  0  0  0  0  0
  143.8180  136.7270  149.6390 C   0  0  0  0  0  2  0  0  0  0  0  0
  142.4130  136.9790  150.1830 C   0  0  0  0  0  2  0  0  0  0  0  0
  142.4090  137.3990  151.6500 C   0  0  0  0  0  2  0  0  0  0  0  0
  143.4160  138.5000  151.9560 C   0  0  0  0  0  2  0  0  0  0  0  0
  144.8010  138.1670  151.4090 C   0  0  0  0  0  2  0  0  0  0  0  0
  146.1230  137.3540  149.5980 O   0  0  0  0  0  0  0  0  0  0  0  0
  146.2770  136.5640  150.1400 H   0  0  0  0  0  0  0  0  0  0  0  0
  144.3610  139.9800  146.5200 C   0  0  0  0  0  1  0  0  0  0  0  0
  144.0380  138.9180  147.5640 C   0  0  0  0  0  2  0  0  0  0  0  0
  146.6490  142.2990  149.6740 C   0  0  0  0  0  2  0  0  0  0  0  0
  147.2530  142.2060  151.0520 C   0  0  0  0  0  0  0  0  0  0  0  0
  148.6390  142.2530  151.2380 C   0  0  0  0  0  3  0  0  0  0  0  0
  149.1910  142.0130  152.5010 C   0  0  0  0  0  3  0  0  0  0  0  0
  148.3660  141.7180  153.5920 C   0  0  0  0  0  0  0  0  0  0  0  0
  146.9770  141.6700  153.4320 C   0  0  0  0  0  0  0  0  0  0  0  0
  146.4390  141.9170  152.1600 C   0  0  0  0  0  3  0  0  0  0  0  0
  148.9560  141.4680  154.8010 O   0  0  0  0  0  0  0  0  0  0  0  0
  148.8750  142.0880  155.4980 H   0  0  0  0  0  0  0  0  0  0  0  0
  146.0190  141.3860  154.3670 O   0  0  0  0  0  0  0  0  0  0  0  0
  145.5930  140.0390  154.5110 C   0  0  0  0  0  1  0  0  0  0  0  0
  1  5  1  0  0  0  0
  1  3  1  0  0  0  0
  2  1  2  0  0  0  0
  3  4  1  0  0  0  0
  3 16  1  0  0  0  0
  5 15  1  6  0  0  0
  5  6  1  0  0  0  0
  6 11  1  0  0  0  0
  7  6  1  0  0  0  0
  7  8  1  0  0  0  0
  8  9  1  0  0  0  0
  9 10  1  0  0  0  0
 11 10  1  0  0  0  0
 12  6  1  0  0  0  0
 12 13  1  0  0  0  0
 14 15  1  0  0  0  0
 16 17  1  0  0  0  0
 17 18  2  0  0  0  0
 17 22  1  0  0  0  0
 18 19  1  0  0  0  0
 19 20  2  0  0  0  0
 20 23  1  0  0  0  0
 21 20  1  0  0  0  0
 21 25  1  0  0  0  0
 22 21  2  0  0  0  0
 23 24  1  0  0  0  0
 25 26  1  0  0  0  0
M  END
>  <MODEL>
9

>  <REMARK>
 VINA RESULT:    -6.372      3.700      7.442
 INTER + INTRA:         -10.270
 INTER:                  -9.093
 INTRA:                  -1.177
 UNBOUND:                -1.291
  Name = CHEMBL4897294
  10 active torsions:
  status: ('A' for Active; 'I' for Inactive)
    1  A    between atoms: C_1  and  C_2
    2  A    between atoms: C_2  and  C_3
    3  A    between atoms: C_3  and  C_4
    4  A    between atoms: C_3  and  C_17
    5  A    between atoms: N_6  and  C_7
    6  A    between atoms: C_7  and  C_8
    7  A    between atoms: C_11  and  O_12
    8  A    between atoms: C_13  and  O_14
    9  A    between atoms: O_14  and  C_15
   10  A    between atoms: C_17  and  O_18
                            x       y       z     vdW  Elec       q    Type
                         _______ _______ _______ _____ _____    ______ ____

>  <TORSDO>
F 8

>  <SCORE>
-6.372

>  <RMSD_LB>
3.700

>  <RMSD_UB>
7.442

$$$$
