CHEMBL76545
 OpenBabel10172500043D

 27 28  0  0  0  0  0  0  0  0999 V2000
  134.6390  135.6010  152.2870 N   0  0  0  0  0  0  0  0  0  0  0  0
  134.5840  135.5570  153.6620 C   0  0  0  0  0  0  0  0  0  0  0  0
  133.6540  136.0220  154.3110 O   0  0  0  0  0  0  0  0  0  0  0  0
  135.4320  135.2420  151.8280 H   0  0  0  0  0  0  0  0  0  0  0  0
  133.5650  136.1620  151.4970 C   0  0  0  0  0  2  0  0  0  0  0  0
  133.2670  135.3080  147.7860 C   0  0  0  0  0  0  0  0  0  0  0  0
  133.4490  136.0200  148.9760 C   0  0  0  0  0  3  0  0  0  0  0  0
  133.3300  135.3850  150.2260 C   0  0  0  0  0  0  0  0  0  0  0  0
  132.9900  134.0260  150.2710 C   0  0  0  0  0  3  0  0  0  0  0  0
  132.8000  133.3060  149.0900 C   0  0  0  0  0  3  0  0  0  0  0  0
  132.9440  133.9460  147.8590 C   0  0  0  0  0  0  0  0  0  0  0  0
  132.7670  137.0870  146.2790 C   0  0  0  0  0  1  0  0  0  0  0  0
  133.3860  135.8330  146.5250 O   0  0  0  0  0  0  0  0  0  0  0  0
  132.7700  133.2360  146.7010 O   0  0  0  0  0  0  0  0  0  0  0  0
  132.3030  133.6170  145.9830 H   0  0  0  0  0  0  0  0  0  0  0  0
  135.8180  134.9470  154.3010 C   0  0  0  0  0  2  0  0  0  0  0  0
  136.1600  135.6610  155.6080 C   0  0  0  0  0  2  0  0  0  0  0  0
  137.2620  136.6820  155.4500 C   0  0  0  0  0  0  0  0  0  0  0  0
  138.1760  136.9030  156.4900 C   0  0  0  0  0  3  0  0  0  0  0  0
  139.2370  137.8050  156.3400 C   0  0  0  0  0  3  0  0  0  0  0  0
  139.3820  138.4940  155.1410 C   0  0  0  0  0  0  0  0  0  0  0  0
  138.4630  138.3070  154.1050 C   0  0  0  0  0  3  0  0  0  0  0  0
  137.4050  137.4080  154.2590 C   0  0  0  0  0  3  0  0  0  0  0  0
  140.4360  139.3950  154.8460 O   0  0  0  0  0  0  0  0  0  0  0  0
  141.8010  139.2030  155.0840 C   0  0  0  0  0  0  0  0  0  0  0  0
  142.3250  138.1810  154.1160 C   0  0  0  0  0  1  0  0  0  0  0  0
  142.4800  139.7290  155.9550 O   0  0  0  0  0  0  0  0  0  0  0  0
  1  2  1  0  0  0  0
  2 16  1  0  0  0  0
  2  3  2  0  0  0  0
  4  1  1  0  0  0  0
  5  1  1  0  0  0  0
  6 11  2  0  0  0  0
  6  7  1  0  0  0  0
  7  8  2  0  0  0  0
  8  9  1  0  0  0  0
  8  5  1  0  0  0  0
 10  9  2  0  0  0  0
 11 10  1  0  0  0  0
 12 13  1  0  0  0  0
 13  6  1  0  0  0  0
 14 11  1  0  0  0  0
 15 14  1  0  0  0  0
 16 17  1  0  0  0  0
 18 17  1  0  0  0  0
 18 19  1  0  0  0  0
 20 19  2  0  0  0  0
 21 20  1  0  0  0  0
 22 23  1  0  0  0  0
 22 21  2  0  0  0  0
 23 18  2  0  0  0  0
 24 25  1  0  0  0  0
 24 21  1  0  0  0  0
 25 27  2  0  0  0  0
 26 25  1  0  0  0  0
M  END
>  <MODEL>
1

>  <REMARK>
 VINA RESULT:    -7.458      0.000      0.000
 INTER + INTRA:         -11.975
 INTER:                 -11.277
 INTRA:                  -0.697
 UNBOUND:                -0.811
  Name = CHEMBL76545
  11 active torsions:
  status: ('A' for Active; 'I' for Inactive)
    1  A    between atoms: C_1  and  O_2
    2  A    between atoms: O_2  and  C_3
    3  A    between atoms: C_5  and  C_6
    4  A    between atoms: C_6  and  N_7
    5  A    between atoms: C_8  and  C_10
    6  A    between atoms: C_10  and  C_11
    7  A    between atoms: C_11  and  C_12
    8  A    between atoms: C_15  and  O_16
    9  A    between atoms: O_16  and  C_17
   10  A    between atoms: C_17  and  C_18
   11  A    between atoms: C_24  and  O_25
                            x       y       z     vdW  Elec       q    Type
                         _______ _______ _______ _____ _____    ______ ____

>  <TORSDO>
F 9

>  <SCORE>
-7.458

>  <RMSD_LB>
0.000

>  <RMSD_UB>
0.000

$$$$
CHEMBL76545
 OpenBabel10172500043D

 27 28  0  0  0  0  0  0  0  0999 V2000
  149.2400  139.3050  153.3110 N   0  0  0  0  0  0  0  0  0  0  0  0
  148.6170  140.2730  154.0670 C   0  0  0  0  0  0  0  0  0  0  0  0
  147.8140  140.0150  154.9560 O   0  0  0  0  0  0  0  0  0  0  0  0
  149.8480  139.5810  152.5870 H   0  0  0  0  0  0  0  0  0  0  0  0
  149.0280  137.8950  153.5500 C   0  0  0  0  0  2  0  0  0  0  0  0
  147.3480  136.0940  150.6300 C   0  0  0  0  0  0  0  0  0  0  0  0
  148.3210  136.6610  151.4600 C   0  0  0  0  0  3  0  0  0  0  0  0
  147.9620  137.3210  152.6500 C   0  0  0  0  0  0  0  0  0  0  0  0
  146.6060  137.4370  152.9840 C   0  0  0  0  0  3  0  0  0  0  0  0
  145.6260  136.8800  152.1610 C   0  0  0  0  0  3  0  0  0  0  0  0
  146.0000  136.2100  150.9960 C   0  0  0  0  0  0  0  0  0  0  0  0
  148.9540  135.0830  149.1860 C   0  0  0  0  0  1  0  0  0  0  0  0
  147.6020  135.4130  149.4680 O   0  0  0  0  0  0  0  0  0  0  0  0
  145.0380  135.6530  150.1950 O   0  0  0  0  0  0  0  0  0  0  0  0
  145.1640  134.7960  149.8380 H   0  0  0  0  0  0  0  0  0  0  0  0
  148.9590  141.6900  153.6440 C   0  0  0  0  0  2  0  0  0  0  0  0
  148.9130  141.8270  152.1230 C   0  0  0  0  0  2  0  0  0  0  0  0
  147.5590  141.4970  151.5420 C   0  0  0  0  0  0  0  0  0  0  0  0
  146.4320  142.2500  151.9030 C   0  0  0  0  0  3  0  0  0  0  0  0
  145.1790  141.9930  151.3320 C   0  0  0  0  0  3  0  0  0  0  0  0
  145.0510  140.9730  150.3950 C   0  0  0  0  0  0  0  0  0  0  0  0
  146.1590  140.1950  150.0470 C   0  0  0  0  0  3  0  0  0  0  0  0
  147.4060  140.4520  150.6200 C   0  0  0  0  0  3  0  0  0  0  0  0
  143.8540  140.6450  149.7110 O   0  0  0  0  0  0  0  0  0  0  0  0
  143.0660  139.5030  149.8910 C   0  0  0  0  0  0  0  0  0  0  0  0
  141.6560  139.9250  150.1850 C   0  0  0  0  0  1  0  0  0  0  0  0
  143.4390  138.3380  149.8640 O   0  0  0  0  0  0  0  0  0  0  0  0
  1  5  1  0  0  0  0
  1  2  1  0  0  0  0
  2  3  2  0  0  0  0
  4  1  1  0  0  0  0
  6 11  2  0  0  0  0
  6  7  1  0  0  0  0
  7  8  2  0  0  0  0
  8  9  1  0  0  0  0
  8  5  1  0  0  0  0
 10  9  2  0  0  0  0
 11 10  1  0  0  0  0
 12 13  1  0  0  0  0
 13  6  1  0  0  0  0
 14 11  1  0  0  0  0
 15 14  1  0  0  0  0
 16  2  1  0  0  0  0
 17 16  1  0  0  0  0
 18 19  1  0  0  0  0
 18 17  1  0  0  0  0
 20 19  2  0  0  0  0
 21 20  1  0  0  0  0
 22 21  2  0  0  0  0
 22 23  1  0  0  0  0
 23 18  2  0  0  0  0
 24 25  1  0  0  0  0
 24 21  1  0  0  0  0
 25 26  1  0  0  0  0
 27 25  2  0  0  0  0
M  END
>  <MODEL>
2

>  <REMARK>
 VINA RESULT:    -7.359      9.012     12.587
 INTER + INTRA:         -11.827
 INTER:                 -10.023
 INTRA:                  -1.804
 UNBOUND:                -0.811
  Name = CHEMBL76545
  11 active torsions:
  status: ('A' for Active; 'I' for Inactive)
    1  A    between atoms: C_1  and  O_2
    2  A    between atoms: O_2  and  C_3
    3  A    between atoms: C_5  and  C_6
    4  A    between atoms: C_6  and  N_7
    5  A    between atoms: C_8  and  C_10
    6  A    between atoms: C_10  and  C_11
    7  A    between atoms: C_11  and  C_12
    8  A    between atoms: C_15  and  O_16
    9  A    between atoms: O_16  and  C_17
   10  A    between atoms: C_17  and  C_18
   11  A    between atoms: C_24  and  O_25
                            x       y       z     vdW  Elec       q    Type
                         _______ _______ _______ _____ _____    ______ ____

>  <TORSDO>
F 9

>  <SCORE>
-7.359

>  <RMSD_LB>
9.012

>  <RMSD_UB>
12.587

$$$$
CHEMBL76545
 OpenBabel10172500043D

 27 28  0  0  0  0  0  0  0  0999 V2000
  144.2610  139.6300  150.3710 N   0  0  0  0  0  0  0  0  0  0  0  0
  142.8970  139.4390  150.3730 C   0  0  0  0  0  0  0  0  0  0  0  0
  142.0910  140.3600  150.4170 O   0  0  0  0  0  0  0  0  0  0  0  0
  144.8550  138.8450  150.3720 H   0  0  0  0  0  0  0  0  0  0  0  0
  144.8460  140.9530  150.3690 C   0  0  0  0  0  2  0  0  0  0  0  0
  147.2430  140.3310  153.2780 C   0  0  0  0  0  0  0  0  0  0  0  0
  146.1140  140.2900  152.4530 C   0  0  0  0  0  3  0  0  0  0  0  0
  146.0580  141.0390  151.2630 C   0  0  0  0  0  0  0  0  0  0  0  0
  147.1400  141.8620  150.9240 C   0  0  0  0  0  3  0  0  0  0  0  0
  148.2690  141.9170  151.7420 C   0  0  0  0  0  3  0  0  0  0  0  0
  148.3180  141.1510  152.9070 C   0  0  0  0  0  0  0  0  0  0  0  0
  146.2790  138.8830  154.9090 C   0  0  0  0  0  1  0  0  0  0  0  0
  147.3980  139.6210  154.4400 O   0  0  0  0  0  0  0  0  0  0  0  0
  149.4320  141.1960  153.7020 O   0  0  0  0  0  0  0  0  0  0  0  0
  149.6920  140.4370  154.1880 H   0  0  0  0  0  0  0  0  0  0  0  0
  142.4880  137.9770  150.3940 C   0  0  0  0  0  2  0  0  0  0  0  0
  142.5780  137.4090  151.8100 C   0  0  0  0  0  2  0  0  0  0  0  0
  141.3610  137.7240  152.6490 C   0  0  0  0  0  0  0  0  0  0  0  0
  141.5040  138.0640  154.0020 C   0  0  0  0  0  3  0  0  0  0  0  0
  140.3930  138.4130  154.7800 C   0  0  0  0  0  3  0  0  0  0  0  0
  139.1290  138.4190  154.2000 C   0  0  0  0  0  0  0  0  0  0  0  0
  138.9660  138.0560  152.8600 C   0  0  0  0  0  3  0  0  0  0  0  0
  140.0770  137.7060  152.0880 C   0  0  0  0  0  3  0  0  0  0  0  0
  137.9340  138.7990  154.8630 O   0  0  0  0  0  0  0  0  0  0  0  0
  137.2510  138.0770  155.8470 C   0  0  0  0  0  0  0  0  0  0  0  0
  137.0190  136.6780  155.3540 C   0  0  0  0  0  1  0  0  0  0  0  0
  136.8540  138.4950  156.9260 O   0  0  0  0  0  0  0  0  0  0  0  0
  1  4  1  0  0  0  0
  1  2  1  0  0  0  0
  2 16  1  0  0  0  0
  2  3  2  0  0  0  0
  5  1  1  0  0  0  0
  5  8  1  0  0  0  0
  6 13  1  0  0  0  0
  7  6  2  0  0  0  0
  8  7  1  0  0  0  0
  9  8  2  0  0  0  0
  9 10  1  0  0  0  0
 10 11  2  0  0  0  0
 11  6  1  0  0  0  0
 11 14  1  0  0  0  0
 13 12  1  0  0  0  0
 14 15  1  0  0  0  0
 16 17  1  0  0  0  0
 17 18  1  0  0  0  0
 18 19  1  0  0  0  0
 19 20  2  0  0  0  0
 21 20  1  0  0  0  0
 21 24  1  0  0  0  0
 22 21  2  0  0  0  0
 23 18  2  0  0  0  0
 23 22  1  0  0  0  0
 24 25  1  0  0  0  0
 25 27  2  0  0  0  0
 26 25  1  0  0  0  0
M  END
>  <MODEL>
3

>  <REMARK>
 VINA RESULT:    -7.352      5.938     11.325
 INTER + INTRA:         -11.817
 INTER:                 -10.922
 INTRA:                  -0.894
 UNBOUND:                -0.811
  Name = CHEMBL76545
  11 active torsions:
  status: ('A' for Active; 'I' for Inactive)
    1  A    between atoms: C_1  and  O_2
    2  A    between atoms: O_2  and  C_3
    3  A    between atoms: C_5  and  C_6
    4  A    between atoms: C_6  and  N_7
    5  A    between atoms: C_8  and  C_10
    6  A    between atoms: C_10  and  C_11
    7  A    between atoms: C_11  and  C_12
    8  A    between atoms: C_15  and  O_16
    9  A    between atoms: O_16  and  C_17
   10  A    between atoms: C_17  and  C_18
   11  A    between atoms: C_24  and  O_25
                            x       y       z     vdW  Elec       q    Type
                         _______ _______ _______ _____ _____    ______ ____

>  <TORSDO>
F 9

>  <SCORE>
-7.352

>  <RMSD_LB>
5.938

>  <RMSD_UB>
11.325

$$$$
CHEMBL76545
 OpenBabel10172500043D

 27 28  0  0  0  0  0  0  0  0999 V2000
  143.2890  140.1470  151.8590 N   0  0  0  0  0  0  0  0  0  0  0  0
  142.8550  138.8430  151.7800 C   0  0  0  0  0  0  0  0  0  0  0  0
  143.4520  137.9750  151.1530 O   0  0  0  0  0  0  0  0  0  0  0  0
  142.7430  140.8050  152.3490 H   0  0  0  0  0  0  0  0  0  0  0  0
  144.5240  140.5800  151.2440 C   0  0  0  0  0  2  0  0  0  0  0  0
  147.3920  139.6470  153.5890 C   0  0  0  0  0  0  0  0  0  0  0  0
  146.3280  139.5510  152.6860 C   0  0  0  0  0  3  0  0  0  0  0  0
  145.6450  140.7010  152.2450 C   0  0  0  0  0  0  0  0  0  0  0  0
  146.0220  141.9530  152.7500 C   0  0  0  0  0  3  0  0  0  0  0  0
  147.0780  142.0610  153.6560 C   0  0  0  0  0  3  0  0  0  0  0  0
  147.7580  140.9130  154.0660 C   0  0  0  0  0  0  0  0  0  0  0  0
  148.4660  137.5690  153.1280 C   0  0  0  0  0  1  0  0  0  0  0  0
  148.1290  138.5900  154.0550 O   0  0  0  0  0  0  0  0  0  0  0  0
  148.8020  141.0220  154.9460 O   0  0  0  0  0  0  0  0  0  0  0  0
  148.6880  140.7700  155.8420 H   0  0  0  0  0  0  0  0  0  0  0  0
  141.5280  138.6000  152.4750 C   0  0  0  0  0  2  0  0  0  0  0  0
  141.7480  138.1480  153.9190 C   0  0  0  0  0  2  0  0  0  0  0  0
  140.4680  138.0890  154.7180 C   0  0  0  0  0  0  0  0  0  0  0  0
  140.4860  137.6530  156.0510 C   0  0  0  0  0  3  0  0  0  0  0  0
  139.3180  137.6450  156.8240 C   0  0  0  0  0  3  0  0  0  0  0  0
  138.1230  138.0740  156.2590 C   0  0  0  0  0  0  0  0  0  0  0  0
  138.0820  138.4850  154.9230 C   0  0  0  0  0  3  0  0  0  0  0  0
  139.2490  138.4890  154.1550 C   0  0  0  0  0  3  0  0  0  0  0  0
  136.8850  138.1600  156.9460 O   0  0  0  0  0  0  0  0  0  0  0  0
  136.6510  137.8880  158.2970 C   0  0  0  0  0  0  0  0  0  0  0  0
  136.3470  136.4260  158.4560 C   0  0  0  0  0  1  0  0  0  0  0  0
  136.6430  138.6910  159.2210 O   0  0  0  0  0  0  0  0  0  0  0  0
  1  4  1  0  0  0  0
  2  1  1  0  0  0  0
  2 16  1  0  0  0  0
  3  2  2  0  0  0  0
  5  1  1  0  0  0  0
  5  8  1  0  0  0  0
  6 13  1  0  0  0  0
  6 11  1  0  0  0  0
  7  6  2  0  0  0  0
  8  7  1  0  0  0  0
  8  9  2  0  0  0  0
  9 10  1  0  0  0  0
 10 11  2  0  0  0  0
 11 14  1  0  0  0  0
 12 13  1  0  0  0  0
 14 15  1  0  0  0  0
 16 17  1  0  0  0  0
 17 18  1  0  0  0  0
 18 19  1  0  0  0  0
 19 20  2  0  0  0  0
 21 20  1  0  0  0  0
 21 24  1  0  0  0  0
 22 21  2  0  0  0  0
 23 18  2  0  0  0  0
 23 22  1  0  0  0  0
 24 25  1  0  0  0  0
 25 26  1  0  0  0  0
 25 27  2  0  0  0  0
M  END
>  <MODEL>
4

>  <REMARK>
 VINA RESULT:    -7.329      6.613     11.209
 INTER + INTRA:         -11.782
 INTER:                 -11.011
 INTRA:                  -0.771
 UNBOUND:                -0.811
  Name = CHEMBL76545
  11 active torsions:
  status: ('A' for Active; 'I' for Inactive)
    1  A    between atoms: C_1  and  O_2
    2  A    between atoms: O_2  and  C_3
    3  A    between atoms: C_5  and  C_6
    4  A    between atoms: C_6  and  N_7
    5  A    between atoms: C_8  and  C_10
    6  A    between atoms: C_10  and  C_11
    7  A    between atoms: C_11  and  C_12
    8  A    between atoms: C_15  and  O_16
    9  A    between atoms: O_16  and  C_17
   10  A    between atoms: C_17  and  C_18
   11  A    between atoms: C_24  and  O_25
                            x       y       z     vdW  Elec       q    Type
                         _______ _______ _______ _____ _____    ______ ____

>  <TORSDO>
F 9

>  <SCORE>
-7.329

>  <RMSD_LB>
6.613

>  <RMSD_UB>
11.209

$$$$
CHEMBL76545
 OpenBabel10172500043D

 27 28  0  0  0  0  0  0  0  0999 V2000
  146.0380  138.9840  150.1280 N   0  0  0  0  0  0  0  0  0  0  0  0
  145.4310  138.4410  149.0180 C   0  0  0  0  0  0  0  0  0  0  0  0
  145.4950  138.9470  147.9040 O   0  0  0  0  0  0  0  0  0  0  0  0
  145.9170  138.5480  151.0020 H   0  0  0  0  0  0  0  0  0  0  0  0
  146.8500  140.1790  150.0470 C   0  0  0  0  0  2  0  0  0  0  0  0
  147.5190  140.2540  153.8070 C   0  0  0  0  0  0  0  0  0  0  0  0
  146.9760  139.9290  152.5590 C   0  0  0  0  0  3  0  0  0  0  0  0
  147.4220  140.5690  151.3870 C   0  0  0  0  0  0  0  0  0  0  0  0
  148.3990  141.5680  151.4840 C   0  0  0  0  0  3  0  0  0  0  0  0
  148.9430  141.9060  152.7240 C   0  0  0  0  0  3  0  0  0  0  0  0
  148.5070  141.2470  153.8740 C   0  0  0  0  0  0  0  0  0  0  0  0
  146.1660  138.6650  154.9600 C   0  0  0  0  0  1  0  0  0  0  0  0
  147.1680  139.6710  154.9970 O   0  0  0  0  0  0  0  0  0  0  0  0
  149.0510  141.5700  155.0890 O   0  0  0  0  0  0  0  0  0  0  0  0
  148.5370  142.0270  155.7260 H   0  0  0  0  0  0  0  0  0  0  0  0
  144.6110  137.2000  149.3190 C   0  0  0  0  0  2  0  0  0  0  0  0
  144.5360  136.9520  150.8250 C   0  0  0  0  0  2  0  0  0  0  0  0
  143.1710  137.2440  151.4020 C   0  0  0  0  0  0  0  0  0  0  0  0
  142.0190  137.0470  150.6280 C   0  0  0  0  0  3  0  0  0  0  0  0
  140.7420  137.2590  151.1650 C   0  0  0  0  0  3  0  0  0  0  0  0
  140.6180  137.6750  152.4860 C   0  0  0  0  0  0  0  0  0  0  0  0
  141.7580  137.9040  153.2620 C   0  0  0  0  0  3  0  0  0  0  0  0
  143.0290  137.6940  152.7220 C   0  0  0  0  0  3  0  0  0  0  0  0
  139.3880  137.8780  153.1610 O   0  0  0  0  0  0  0  0  0  0  0  0
  139.1660  138.6800  154.2850 C   0  0  0  0  0  0  0  0  0  0  0  0
  138.9650  137.7960  155.4820 C   0  0  0  0  0  1  0  0  0  0  0  0
  139.0960  139.9000  154.3190 O   0  0  0  0  0  0  0  0  0  0  0  0
  1  4  1  0  0  0  0
  2 16  1  0  0  0  0
  2  1  1  0  0  0  0
  3  2  2  0  0  0  0
  5  1  1  0  0  0  0
  5  8  1  0  0  0  0
  6 11  1  0  0  0  0
  6 13  1  0  0  0  0
  7  6  2  0  0  0  0
  8  9  2  0  0  0  0
  8  7  1  0  0  0  0
  9 10  1  0  0  0  0
 10 11  2  0  0  0  0
 11 14  1  0  0  0  0
 12 13  1  0  0  0  0
 14 15  1  0  0  0  0
 16 17  1  0  0  0  0
 17 18  1  0  0  0  0
 18 23  1  0  0  0  0
 19 20  1  0  0  0  0
 19 18  2  0  0  0  0
 20 21  2  0  0  0  0
 21 24  1  0  0  0  0
 21 22  1  0  0  0  0
 23 22  2  0  0  0  0
 24 25  1  0  0  0  0
 25 27  2  0  0  0  0
 25 26  1  0  0  0  0
M  END
>  <MODEL>
5

>  <REMARK>
 VINA RESULT:    -7.206      6.419     12.202
 INTER + INTRA:         -11.597
 INTER:                 -10.585
 INTRA:                  -1.012
 UNBOUND:                -0.811
  Name = CHEMBL76545
  11 active torsions:
  status: ('A' for Active; 'I' for Inactive)
    1  A    between atoms: C_1  and  O_2
    2  A    between atoms: O_2  and  C_3
    3  A    between atoms: C_5  and  C_6
    4  A    between atoms: C_6  and  N_7
    5  A    between atoms: C_8  and  C_10
    6  A    between atoms: C_10  and  C_11
    7  A    between atoms: C_11  and  C_12
    8  A    between atoms: C_15  and  O_16
    9  A    between atoms: O_16  and  C_17
   10  A    between atoms: C_17  and  C_18
   11  A    between atoms: C_24  and  O_25
                            x       y       z     vdW  Elec       q    Type
                         _______ _______ _______ _____ _____    ______ ____

>  <TORSDO>
F 9

>  <SCORE>
-7.206

>  <RMSD_LB>
6.419

>  <RMSD_UB>
12.202

$$$$
CHEMBL76545
 OpenBabel10172500043D

 27 28  0  0  0  0  0  0  0  0999 V2000
  145.0310  139.0510  152.4650 N   0  0  0  0  0  0  0  0  0  0  0  0
  144.2650  138.7840  153.5770 C   0  0  0  0  0  0  0  0  0  0  0  0
  144.3510  139.4220  154.6200 O   0  0  0  0  0  0  0  0  0  0  0  0
  144.9400  138.4770  151.6700 H   0  0  0  0  0  0  0  0  0  0  0  0
  145.9680  140.1530  152.4300 C   0  0  0  0  0  2  0  0  0  0  0  0
  146.2080  140.3350  148.6220 C   0  0  0  0  0  0  0  0  0  0  0  0
  146.0750  139.8400  149.9230 C   0  0  0  0  0  3  0  0  0  0  0  0
  146.1490  140.7000  151.0360 C   0  0  0  0  0  0  0  0  0  0  0  0
  146.3930  142.0640  150.8280 C   0  0  0  0  0  3  0  0  0  0  0  0
  146.5330  142.5690  149.5350 C   0  0  0  0  0  3  0  0  0  0  0  0
  146.4350  141.7070  148.4420 C   0  0  0  0  0  0  0  0  0  0  0  0
  147.2620  138.8060  147.1260 C   0  0  0  0  0  1  0  0  0  0  0  0
  146.1270  139.5820  147.4790 O   0  0  0  0  0  0  0  0  0  0  0  0
  146.5600  142.2040  147.1720 O   0  0  0  0  0  0  0  0  0  0  0  0
  147.4010  142.4690  146.8530 H   0  0  0  0  0  0  0  0  0  0  0  0
  143.3610  137.5750  153.4160 C   0  0  0  0  0  2  0  0  0  0  0  0
  142.2600  137.8540  152.3940 C   0  0  0  0  0  2  0  0  0  0  0  0
  140.8920  137.9830  153.0220 C   0  0  0  0  0  0  0  0  0  0  0  0
  139.7390  137.7700  152.2530 C   0  0  0  0  0  3  0  0  0  0  0  0
  138.4650  137.8300  152.8320 C   0  0  0  0  0  3  0  0  0  0  0  0
  138.3430  138.1080  154.1890 C   0  0  0  0  0  0  0  0  0  0  0  0
  139.4820  138.3520  154.9620 C   0  0  0  0  0  3  0  0  0  0  0  0
  140.7510  138.2930  154.3810 C   0  0  0  0  0  3  0  0  0  0  0  0
  137.1190  138.1500  154.9020 O   0  0  0  0  0  0  0  0  0  0  0  0
  136.8870  137.6990  156.2050 C   0  0  0  0  0  0  0  0  0  0  0  0
  136.8120  136.1990  156.1960 C   0  0  0  0  0  1  0  0  0  0  0  0
  136.7240  138.3840  157.2050 O   0  0  0  0  0  0  0  0  0  0  0  0
  1  2  1  0  0  0  0
  2  3  2  0  0  0  0
  4  1  1  0  0  0  0
  5  1  1  0  0  0  0
  6  7  1  0  0  0  0
  7  8  2  0  0  0  0
  8  5  1  0  0  0  0
  9  8  1  0  0  0  0
 10  9  2  0  0  0  0
 11  6  2  0  0  0  0
 11 10  1  0  0  0  0
 12 13  1  0  0  0  0
 13  6  1  0  0  0  0
 14 11  1  0  0  0  0
 15 14  1  0  0  0  0
 16  2  1  0  0  0  0
 17 18  1  0  0  0  0
 17 16  1  0  0  0  0
 18 23  1  0  0  0  0
 19 20  1  0  0  0  0
 19 18  2  0  0  0  0
 20 21  2  0  0  0  0
 21 24  1  0  0  0  0
 21 22  1  0  0  0  0
 23 22  2  0  0  0  0
 24 25  1  0  0  0  0
 25 27  2  0  0  0  0
 26 25  1  0  0  0  0
M  END
>  <MODEL>
6

>  <REMARK>
 VINA RESULT:    -7.159      5.722     10.600
 INTER + INTRA:         -11.527
 INTER:                 -10.729
 INTRA:                  -0.798
 UNBOUND:                -0.811
  Name = CHEMBL76545
  11 active torsions:
  status: ('A' for Active; 'I' for Inactive)
    1  A    between atoms: C_1  and  O_2
    2  A    between atoms: O_2  and  C_3
    3  A    between atoms: C_5  and  C_6
    4  A    between atoms: C_6  and  N_7
    5  A    between atoms: C_8  and  C_10
    6  A    between atoms: C_10  and  C_11
    7  A    between atoms: C_11  and  C_12
    8  A    between atoms: C_15  and  O_16
    9  A    between atoms: O_16  and  C_17
   10  A    between atoms: C_17  and  C_18
   11  A    between atoms: C_24  and  O_25
                            x       y       z     vdW  Elec       q    Type
                         _______ _______ _______ _____ _____    ______ ____

>  <TORSDO>
F 9

>  <SCORE>
-7.159

>  <RMSD_LB>
5.722

>  <RMSD_UB>
10.600

$$$$
CHEMBL76545
 OpenBabel10172500043D

 27 28  0  0  0  0  0  0  0  0999 V2000
  135.1260  134.3350  151.8440 N   0  0  0  0  0  0  0  0  0  0  0  0
  135.1280  135.6870  152.1050 C   0  0  0  0  0  0  0  0  0  0  0  0
  134.1330  136.3930  151.9900 O   0  0  0  0  0  0  0  0  0  0  0  0
  135.9680  133.8310  151.9210 H   0  0  0  0  0  0  0  0  0  0  0  0
  133.9210  133.6330  151.4600 C   0  0  0  0  0  2  0  0  0  0  0  0
  134.5720  132.6140  147.8360 C   0  0  0  0  0  0  0  0  0  0  0  0
  134.7040  132.7560  149.2220 C   0  0  0  0  0  3  0  0  0  0  0  0
  133.7830  133.5220  149.9620 C   0  0  0  0  0  0  0  0  0  0  0  0
  132.7430  134.1760  149.2890 C   0  0  0  0  0  3  0  0  0  0  0  0
  132.6050  134.0470  147.9060 C   0  0  0  0  0  3  0  0  0  0  0  0
  133.5130  133.2660  147.1900 C   0  0  0  0  0  0  0  0  0  0  0  0
  136.6500  132.4460  146.6780 C   0  0  0  0  0  1  0  0  0  0  0  0
  135.4020  131.8710  147.0370 O   0  0  0  0  0  0  0  0  0  0  0  0
  133.3700  133.1300  145.8350 O   0  0  0  0  0  0  0  0  0  0  0  0
  132.5510  133.3360  145.4270 H   0  0  0  0  0  0  0  0  0  0  0  0
  136.4940  136.2340  152.4740 C   0  0  0  0  0  2  0  0  0  0  0  0
  137.0780  137.0540  151.3250 C   0  0  0  0  0  2  0  0  0  0  0  0
  138.5690  137.2640  151.4500 C   0  0  0  0  0  0  0  0  0  0  0  0
  139.4210  136.9300  150.3870 C   0  0  0  0  0  3  0  0  0  0  0  0
  140.7990  137.1700  150.4640 C   0  0  0  0  0  3  0  0  0  0  0  0
  141.3290  137.7440  151.6150 C   0  0  0  0  0  0  0  0  0  0  0  0
  140.4970  138.0560  152.6940 C   0  0  0  0  0  3  0  0  0  0  0  0
  139.1240  137.8130  152.6140 C   0  0  0  0  0  3  0  0  0  0  0  0
  142.6940  138.0810  151.7990 O   0  0  0  0  0  0  0  0  0  0  0  0
  143.2550  139.3620  151.7890 C   0  0  0  0  0  0  0  0  0  0  0  0
  142.8030  140.0830  150.5520 C   0  0  0  0  0  1  0  0  0  0  0  0
  144.0250  139.8360  152.6120 O   0  0  0  0  0  0  0  0  0  0  0  0
  1  4  1  0  0  0  0
  1  2  1  0  0  0  0
  2 16  1  0  0  0  0
  3  2  2  0  0  0  0
  5  1  1  0  0  0  0
  6  7  1  0  0  0  0
  7  8  2  0  0  0  0
  8  5  1  0  0  0  0
  9  8  1  0  0  0  0
 10  9  2  0  0  0  0
 11  6  2  0  0  0  0
 11 10  1  0  0  0  0
 12 13  1  0  0  0  0
 13  6  1  0  0  0  0
 14 11  1  0  0  0  0
 15 14  1  0  0  0  0
 17 18  1  0  0  0  0
 17 16  1  0  0  0  0
 18 23  1  0  0  0  0
 19 20  1  0  0  0  0
 19 18  2  0  0  0  0
 20 21  2  0  0  0  0
 21 24  1  0  0  0  0
 21 22  1  0  0  0  0
 23 22  2  0  0  0  0
 25 24  1  0  0  0  0
 25 27  2  0  0  0  0
 26 25  1  0  0  0  0
M  END
>  <MODEL>
7

>  <REMARK>
 VINA RESULT:    -6.990      2.662      3.539
 INTER + INTRA:         -11.275
 INTER:                 -10.464
 INTRA:                  -0.811
 UNBOUND:                -0.811
  Name = CHEMBL76545
  11 active torsions:
  status: ('A' for Active; 'I' for Inactive)
    1  A    between atoms: C_1  and  O_2
    2  A    between atoms: O_2  and  C_3
    3  A    between atoms: C_5  and  C_6
    4  A    between atoms: C_6  and  N_7
    5  A    between atoms: C_8  and  C_10
    6  A    between atoms: C_10  and  C_11
    7  A    between atoms: C_11  and  C_12
    8  A    between atoms: C_15  and  O_16
    9  A    between atoms: O_16  and  C_17
   10  A    between atoms: C_17  and  C_18
   11  A    between atoms: C_24  and  O_25
                            x       y       z     vdW  Elec       q    Type
                         _______ _______ _______ _____ _____    ______ ____

>  <TORSDO>
F 9

>  <SCORE>
-6.990

>  <RMSD_LB>
2.662

>  <RMSD_UB>
3.539

$$$$
CHEMBL76545
 OpenBabel10172500043D

 27 28  0  0  0  0  0  0  0  0999 V2000
  135.4250  134.9140  154.1080 N   0  0  0  0  0  0  0  0  0  0  0  0
  134.3270  135.5050  153.5250 C   0  0  0  0  0  0  0  0  0  0  0  0
  133.9530  136.6400  153.7960 O   0  0  0  0  0  0  0  0  0  0  0  0
  135.6510  133.9860  153.8730 H   0  0  0  0  0  0  0  0  0  0  0  0
  136.2570  135.6200  155.0580 C   0  0  0  0  0  2  0  0  0  0  0  0
  135.8980  136.0990  158.8310 C   0  0  0  0  0  0  0  0  0  0  0  0
  136.3940  136.1590  157.5240 C   0  0  0  0  0  3  0  0  0  0  0  0
  135.7270  135.5130  156.4660 C   0  0  0  0  0  0  0  0  0  0  0  0
  134.5690  134.7720  156.7400 C   0  0  0  0  0  3  0  0  0  0  0  0
  134.0690  134.6990  158.0410 C   0  0  0  0  0  3  0  0  0  0  0  0
  134.7290  135.3640  159.0750 C   0  0  0  0  0  0  0  0  0  0  0  0
  136.2970  138.1190  160.0330 C   0  0  0  0  0  1  0  0  0  0  0  0
  136.4620  136.7140  159.9180 O   0  0  0  0  0  0  0  0  0  0  0  0
  134.2300  135.3020  160.3480 O   0  0  0  0  0  0  0  0  0  0  0  0
  133.3850  134.9270  160.5030 H   0  0  0  0  0  0  0  0  0  0  0  0
  133.5790  134.5910  152.5720 C   0  0  0  0  0  2  0  0  0  0  0  0
  133.3170  135.2930  151.2400 C   0  0  0  0  0  2  0  0  0  0  0  0
  133.8230  134.5090  150.0520 C   0  0  0  0  0  0  0  0  0  0  0  0
  133.6220  133.1230  149.9820 C   0  0  0  0  0  3  0  0  0  0  0  0
  134.0350  132.3900  148.8630 C   0  0  0  0  0  3  0  0  0  0  0  0
  134.6570  133.0470  147.8070 C   0  0  0  0  0  0  0  0  0  0  0  0
  134.8910  134.4240  147.8740 C   0  0  0  0  0  3  0  0  0  0  0  0
  134.4790  135.1510  148.9930 C   0  0  0  0  0  3  0  0  0  0  0  0
  135.0770  132.4300  146.6010 O   0  0  0  0  0  0  0  0  0  0  0  0
  136.1000  132.8570  145.7490 C   0  0  0  0  0  0  0  0  0  0  0  0
  135.4970  133.3030  144.4480 C   0  0  0  0  0  1  0  0  0  0  0  0
  137.3020  132.8420  145.9740 O   0  0  0  0  0  0  0  0  0  0  0  0
  1  5  1  0  0  0  0
  2  3  2  0  0  0  0
  2  1  1  0  0  0  0
  4  1  1  0  0  0  0
  5  8  1  0  0  0  0
  6 11  1  0  0  0  0
  6 13  1  0  0  0  0
  7  6  2  0  0  0  0
  8  9  2  0  0  0  0
  8  7  1  0  0  0  0
  9 10  1  0  0  0  0
 10 11  2  0  0  0  0
 11 14  1  0  0  0  0
 13 12  1  0  0  0  0
 14 15  1  0  0  0  0
 16  2  1  0  0  0  0
 17 16  1  0  0  0  0
 18 17  1  0  0  0  0
 19 18  1  0  0  0  0
 20 19  2  0  0  0  0
 21 22  2  0  0  0  0
 21 20  1  0  0  0  0
 22 23  1  0  0  0  0
 23 18  2  0  0  0  0
 24 21  1  0  0  0  0
 25 27  2  0  0  0  0
 25 24  1  0  0  0  0
 26 25  1  0  0  0  0
M  END
>  <MODEL>
8

>  <REMARK>
 VINA RESULT:    -6.951      3.505      9.494
 INTER + INTRA:         -11.216
 INTER:                 -10.721
 INTRA:                  -0.495
 UNBOUND:                -0.811
  Name = CHEMBL76545
  11 active torsions:
  status: ('A' for Active; 'I' for Inactive)
    1  A    between atoms: C_1  and  O_2
    2  A    between atoms: O_2  and  C_3
    3  A    between atoms: C_5  and  C_6
    4  A    between atoms: C_6  and  N_7
    5  A    between atoms: C_8  and  C_10
    6  A    between atoms: C_10  and  C_11
    7  A    between atoms: C_11  and  C_12
    8  A    between atoms: C_15  and  O_16
    9  A    between atoms: O_16  and  C_17
   10  A    between atoms: C_17  and  C_18
   11  A    between atoms: C_24  and  O_25
                            x       y       z     vdW  Elec       q    Type
                         _______ _______ _______ _____ _____    ______ ____

>  <TORSDO>
F 9

>  <SCORE>
-6.951

>  <RMSD_LB>
3.505

>  <RMSD_UB>
9.494

$$$$
CHEMBL76545
 OpenBabel10172500043D

 27 28  0  0  0  0  0  0  0  0999 V2000
  139.4010  137.7040  151.4220 N   0  0  0  0  0  0  0  0  0  0  0  0
  140.7380  137.3790  151.3770 C   0  0  0  0  0  0  0  0  0  0  0  0
  141.2550  136.7960  150.4320 O   0  0  0  0  0  0  0  0  0  0  0  0
  139.0410  138.1410  152.2280 H   0  0  0  0  0  0  0  0  0  0  0  0
  138.5100  137.4220  150.3190 C   0  0  0  0  0  2  0  0  0  0  0  0
  134.9390  136.0640  150.2670 C   0  0  0  0  0  0  0  0  0  0  0  0
  136.1620  136.6050  149.8560 C   0  0  0  0  0  3  0  0  0  0  0  0
  137.1850  136.8730  150.7860 C   0  0  0  0  0  0  0  0  0  0  0  0
  136.9530  136.6240  152.1460 C   0  0  0  0  0  3  0  0  0  0  0  0
  135.7340  136.0910  152.5690 C   0  0  0  0  0  3  0  0  0  0  0  0
  134.7400  135.8100  151.6310 C   0  0  0  0  0  0  0  0  0  0  0  0
  133.4660  136.7440  148.5210 C   0  0  0  0  0  1  0  0  0  0  0  0
  133.8970  135.7470  149.4350 O   0  0  0  0  0  0  0  0  0  0  0  0
  133.5490  135.2750  152.0460 O   0  0  0  0  0  0  0  0  0  0  0  0
  133.2560  135.4080  152.9260 H   0  0  0  0  0  0  0  0  0  0  0  0
  141.4960  137.7420  152.6420 C   0  0  0  0  0  2  0  0  0  0  0  0
  140.7840  138.8640  153.3960 C   0  0  0  0  0  2  0  0  0  0  0  0
  140.0010  138.3670  154.5880 C   0  0  0  0  0  0  0  0  0  0  0  0
  140.6640  137.7750  155.6730 C   0  0  0  0  0  3  0  0  0  0  0  0
  139.9590  137.3590  156.8100 C   0  0  0  0  0  3  0  0  0  0  0  0
  138.5810  137.5350  156.8610 C   0  0  0  0  0  0  0  0  0  0  0  0
  137.9020  138.0980  155.7770 C   0  0  0  0  0  3  0  0  0  0  0  0
  138.6080  138.5090  154.6440 C   0  0  0  0  0  3  0  0  0  0  0  0
  137.7610  137.2030  157.9690 O   0  0  0  0  0  0  0  0  0  0  0  0
  137.1760  138.0880  158.8800 C   0  0  0  0  0  0  0  0  0  0  0  0
  137.9070  137.9960  160.1880 C   0  0  0  0  0  1  0  0  0  0  0  0
  136.2010  138.8020  158.6920 O   0  0  0  0  0  0  0  0  0  0  0  0
  1  4  1  0  0  0  0
  2  1  1  0  0  0  0
  2 16  1  0  0  0  0
  3  2  2  0  0  0  0
  5  8  1  0  0  0  0
  5  1  1  0  0  0  0
  6 11  1  0  0  0  0
  7  6  2  0  0  0  0
  7  8  1  0  0  0  0
  8  9  2  0  0  0  0
  9 10  1  0  0  0  0
 11 14  1  0  0  0  0
 11 10  2  0  0  0  0
 12 13  1  0  0  0  0
 13  6  1  0  0  0  0
 14 15  1  0  0  0  0
 16 17  1  0  0  0  0
 17 18  1  0  0  0  0
 18 23  2  0  0  0  0
 18 19  1  0  0  0  0
 19 20  2  0  0  0  0
 20 21  1  0  0  0  0
 21 24  1  0  0  0  0
 22 21  2  0  0  0  0
 23 22  1  0  0  0  0
 24 25  1  0  0  0  0
 25 26  1  0  0  0  0
 27 25  2  0  0  0  0
M  END
>  <MODEL>
9

>  <REMARK>
 VINA RESULT:    -6.869      2.971      4.923
 INTER + INTRA:         -11.093
 INTER:                 -10.070
 INTRA:                  -1.023
 UNBOUND:                -0.811
  Name = CHEMBL76545
  11 active torsions:
  status: ('A' for Active; 'I' for Inactive)
    1  A    between atoms: C_1  and  O_2
    2  A    between atoms: O_2  and  C_3
    3  A    between atoms: C_5  and  C_6
    4  A    between atoms: C_6  and  N_7
    5  A    between atoms: C_8  and  C_10
    6  A    between atoms: C_10  and  C_11
    7  A    between atoms: C_11  and  C_12
    8  A    between atoms: C_15  and  O_16
    9  A    between atoms: O_16  and  C_17
   10  A    between atoms: C_17  and  C_18
   11  A    between atoms: C_24  and  O_25
                            x       y       z     vdW  Elec       q    Type
                         _______ _______ _______ _____ _____    ______ ____

>  <TORSDO>
F 9

>  <SCORE>
-6.869

>  <RMSD_LB>
2.971

>  <RMSD_UB>
4.923

$$$$
