CHEMBL4894434
 OpenBabel10162523453D

 23 23  0  0  1  0  0  0  0  0999 V2000
  145.3880  139.5230  153.6920 C   0  0  0  0  0  0  0  0  0  0  0  0
  145.0640  139.7350  154.8600 O   0  0  0  0  0  0  0  0  0  0  0  0
  144.9640  138.4240  152.9770 N   0  0  0  0  0  0  0  0  0  0  0  0
  145.2650  138.3160  152.0460 H   0  0  0  0  0  0  0  0  0  0  0  0
  146.3140  140.4910  152.9100 C   0  0  1  0  0  3  0  0  0  0  0  0
  145.6720  140.8770  151.6050 N   0  0  0  0  0  4  0  0  0  0  0  0
  145.4580  142.3290  151.5290 C   0  0  0  0  0  1  0  0  0  0  0  0
  146.5220  140.4870  150.4680 C   0  0  0  0  0  1  0  0  0  0  0  0
  144.7760  140.3900  151.5610 H   0  0  0  0  0  0  0  0  0  0  0  0
  146.6210  141.7220  153.8030 C   0  0  0  0  0  2  0  0  0  0  0  0
  149.0960  141.8720  153.3950 C   0  0  0  0  0  2  0  0  0  0  0  0
  148.0570  141.8310  154.2420 C   0  0  0  0  0  3  0  0  0  0  0  0
  144.0920  137.4260  153.5480 C   0  0  0  0  0  2  0  0  0  0  0  0
  142.6480  137.6850  153.2110 C   0  0  0  0  0  0  0  0  0  0  0  0
  141.7970  138.2810  154.1460 C   0  0  0  0  0  3  0  0  0  0  0  0
  140.4580  138.5190  153.8320 C   0  0  0  0  0  3  0  0  0  0  0  0
  139.9510  138.1520  152.5810 C   0  0  0  0  0  0  0  0  0  0  0  0
  140.7810  137.5400  151.6340 C   0  0  0  0  0  0  0  0  0  0  0  0
  142.1250  137.3140  151.9640 C   0  0  0  0  0  3  0  0  0  0  0  0
  138.6330  138.4090  152.3200 O   0  0  0  0  0  0  0  0  0  0  0  0
  137.9740  138.1380  152.9280 H   0  0  0  0  0  0  0  0  0  0  0  0
  140.4640  137.1120  150.3730 O   0  0  0  0  0  0  0  0  0  0  0  0
  141.5070  137.0060  149.4160 C   0  0  0  0  0  1  0  0  0  0  0  0
  1  2  2  0  0  0  0
  3 13  1  0  0  0  0
  3  1  1  0  0  0  0
  4  3  1  0  0  0  0
  5  1  1  0  0  0  0
  5 10  1  1  0  0  0
  6  5  1  0  0  0  0
  7  6  1  0  0  0  0
  8  6  1  0  0  0  0
  9  6  1  0  0  0  0
 10 12  1  0  0  0  0
 11 12  2  0  0  0  0
 14 13  1  0  0  0  0
 14 15  1  0  0  0  0
 16 15  2  0  0  0  0
 17 16  1  0  0  0  0
 18 19  1  0  0  0  0
 18 17  2  0  0  0  0
 19 14  2  0  0  0  0
 20 17  1  0  0  0  0
 20 21  1  0  0  0  0
 22 18  1  0  0  0  0
 23 22  1  0  0  0  0
M  END
>  <MODEL>
1

>  <REMARK>
 VINA RESULT:    -5.669      0.000      0.000
 INTER + INTRA:          -8.923
 INTER:                  -8.228
 INTRA:                  -0.695
 UNBOUND:                -0.769
  Name = CHEMBL4894434
  11 active torsions:
  status: ('A' for Active; 'I' for Inactive)
    1  A    between atoms: C_2  and  C_3
    2  A    between atoms: C_3  and  C_4
    3  A    between atoms: C_4  and  C_5
    4  A    between atoms: C_4  and  N_18
    5  A    between atoms: N_7  and  C_8
    6  A    between atoms: C_8  and  C_9
    7  A    between atoms: C_12  and  O_13
    8  A    between atoms: C_14  and  O_15
    9  A    between atoms: O_15  and  C_16
   10  A    between atoms: N_18  and  C_19
   11  A    between atoms: N_18  and  C_20
                            x       y       z     vdW  Elec       q    Type
                         _______ _______ _______ _____ _____    ______ ____

>  <TORSDO>
F 8

>  <SCORE>
-5.669

>  <RMSD_LB>
0.000

>  <RMSD_UB>
0.000

$$$$
CHEMBL4894434
 OpenBabel10162523453D

 23 23  0  0  1  0  0  0  0  0999 V2000
  142.0570  139.3510  150.4670 C   0  0  0  0  0  0  0  0  0  0  0  0
  142.3410  138.7450  149.4350 O   0  0  0  0  0  0  0  0  0  0  0  0
  142.9380  140.1860  151.1210 N   0  0  0  0  0  0  0  0  0  0  0  0
  142.6430  140.6370  151.9450 H   0  0  0  0  0  0  0  0  0  0  0  0
  140.6600  139.2300  151.1310 C   0  0  1  0  0  3  0  0  0  0  0  0
  139.5820  139.3380  150.0870 N   0  0  0  0  0  4  0  0  0  0  0  0
  138.4200  138.5080  150.4370 C   0  0  0  0  0  1  0  0  0  0  0  0
  139.1180  140.7290  149.9560 C   0  0  0  0  0  1  0  0  0  0  0  0
  139.9870  139.0160  149.2080 H   0  0  0  0  0  0  0  0  0  0  0  0
  140.5910  137.8920  151.9130 C   0  0  0  0  0  2  0  0  0  0  0  0
  142.1970  137.8650  153.8450 C   0  0  0  0  0  2  0  0  0  0  0  0
  140.9510  138.0020  153.3710 C   0  0  0  0  0  3  0  0  0  0  0  0
  144.2760  140.4200  150.6380 C   0  0  0  0  0  2  0  0  0  0  0  0
  145.2260  140.7500  151.7580 C   0  0  0  0  0  0  0  0  0  0  0  0
  145.6200  142.0720  151.9870 C   0  0  0  0  0  3  0  0  0  0  0  0
  146.5020  142.3760  153.0250 C   0  0  0  0  0  3  0  0  0  0  0  0
  147.0110  141.3590  153.8400 C   0  0  0  0  0  0  0  0  0  0  0  0
  146.6420  140.0260  153.6190 C   0  0  0  0  0  0  0  0  0  0  0  0
  145.7500  139.7390  152.5760 C   0  0  0  0  0  3  0  0  0  0  0  0
  147.8690  141.7080  154.8460 O   0  0  0  0  0  0  0  0  0  0  0  0
  148.7930  141.7130  154.6920 H   0  0  0  0  0  0  0  0  0  0  0  0
  147.0370  138.9070  154.3030 O   0  0  0  0  0  0  0  0  0  0  0  0
  146.0740  137.8950  154.5510 C   0  0  0  0  0  1  0  0  0  0  0  0
  1  3  1  0  0  0  0
  1  5  1  0  0  0  0
  2  1  2  0  0  0  0
  3  4  1  0  0  0  0
  5 10  1  6  0  0  0
  6  7  1  0  0  0  0
  6  5  1  0  0  0  0
  8  6  1  0  0  0  0
  9  6  1  0  0  0  0
 10 12  1  0  0  0  0
 12 11  2  0  0  0  0
 13  3  1  0  0  0  0
 13 14  1  0  0  0  0
 14 15  2  0  0  0  0
 14 19  1  0  0  0  0
 15 16  1  0  0  0  0
 16 17  2  0  0  0  0
 17 20  1  0  0  0  0
 18 17  1  0  0  0  0
 18 22  1  0  0  0  0
 19 18  2  0  0  0  0
 21 20  1  0  0  0  0
 22 23  1  0  0  0  0
M  END
>  <MODEL>
2

>  <REMARK>
 VINA RESULT:    -5.549      2.420      6.755
 INTER + INTRA:          -8.750
 INTER:                  -8.066
 INTRA:                  -0.685
 UNBOUND:                -0.769
  Name = CHEMBL4894434
  11 active torsions:
  status: ('A' for Active; 'I' for Inactive)
    1  A    between atoms: C_2  and  C_3
    2  A    between atoms: C_3  and  C_4
    3  A    between atoms: C_4  and  C_5
    4  A    between atoms: C_4  and  N_18
    5  A    between atoms: N_7  and  C_8
    6  A    between atoms: C_8  and  C_9
    7  A    between atoms: C_12  and  O_13
    8  A    between atoms: C_14  and  O_15
    9  A    between atoms: O_15  and  C_16
   10  A    between atoms: N_18  and  C_19
   11  A    between atoms: N_18  and  C_20
                            x       y       z     vdW  Elec       q    Type
                         _______ _______ _______ _____ _____    ______ ____

>  <TORSDO>
F 8

>  <SCORE>
-5.549

>  <RMSD_LB>
2.420

>  <RMSD_UB>
6.755

$$$$
CHEMBL4894434
 OpenBabel10162523453D

 23 23  0  0  1  0  0  0  0  0999 V2000
  136.0950  134.8860  148.6490 C   0  0  0  0  0  0  0  0  0  0  0  0
  137.2430  134.4530  148.5730 O   0  0  0  0  0  0  0  0  0  0  0  0
  135.6320  135.6200  149.7210 N   0  0  0  0  0  0  0  0  0  0  0  0
  134.6990  135.9340  149.7150 H   0  0  0  0  0  0  0  0  0  0  0  0
  135.0520  134.6450  147.5270 C   0  0  1  0  0  3  0  0  0  0  0  0
  135.6170  135.0670  146.1980 N   0  0  0  0  0  4  0  0  0  0  0  0
  134.9770  134.3360  145.0940 C   0  0  0  0  0  1  0  0  0  0  0  0
  135.4000  136.5050  145.9700 C   0  0  0  0  0  1  0  0  0  0  0  0
  136.6150  134.8580  146.2210 H   0  0  0  0  0  0  0  0  0  0  0  0
  134.6350  133.1500  147.5430 C   0  0  0  0  0  2  0  0  0  0  0  0
  132.7670  133.4700  149.1920 C   0  0  0  0  0  2  0  0  0  0  0  0
  133.7970  132.7480  148.7270 C   0  0  0  0  0  3  0  0  0  0  0  0
  136.4710  135.9450  150.8480 C   0  0  0  0  0  2  0  0  0  0  0  0
  135.8900  135.4390  152.1420 C   0  0  0  0  0  0  0  0  0  0  0  0
  134.9740  134.3820  152.1420 C   0  0  0  0  0  3  0  0  0  0  0  0
  134.4350  133.9160  153.3430 C   0  0  0  0  0  3  0  0  0  0  0  0
  134.7970  134.5090  154.5570 C   0  0  0  0  0  0  0  0  0  0  0  0
  135.7010  135.5790  154.5780 C   0  0  0  0  0  0  0  0  0  0  0  0
  136.2370  136.0310  153.3640 C   0  0  0  0  0  3  0  0  0  0  0  0
  134.2440  134.0140  155.7050 O   0  0  0  0  0  0  0  0  0  0  0  0
  133.3320  133.8010  155.7320 H   0  0  0  0  0  0  0  0  0  0  0  0
  136.1640  136.2820  155.6580 O   0  0  0  0  0  0  0  0  0  0  0  0
  137.4130  135.9070  156.2190 C   0  0  0  0  0  1  0  0  0  0  0  0
  1  3  1  0  0  0  0
  2  1  2  0  0  0  0
  3 13  1  0  0  0  0
  4  3  1  0  0  0  0
  5 10  1  6  0  0  0
  5  1  1  0  0  0  0
  6  9  1  0  0  0  0
  6  5  1  0  0  0  0
  7  6  1  0  0  0  0
  8  6  1  0  0  0  0
 10 12  1  0  0  0  0
 12 11  2  0  0  0  0
 13 14  1  0  0  0  0
 14 15  2  0  0  0  0
 14 19  1  0  0  0  0
 15 16  1  0  0  0  0
 16 17  2  0  0  0  0
 17 18  1  0  0  0  0
 17 20  1  0  0  0  0
 18 22  1  0  0  0  0
 19 18  2  0  0  0  0
 20 21  1  0  0  0  0
 22 23  1  0  0  0  0
M  END
>  <MODEL>
3

>  <REMARK>
 VINA RESULT:    -5.457      8.705     11.288
 INTER + INTRA:          -8.618
 INTER:                  -7.797
 INTRA:                  -0.821
 UNBOUND:                -0.769
  Name = CHEMBL4894434
  11 active torsions:
  status: ('A' for Active; 'I' for Inactive)
    1  A    between atoms: C_2  and  C_3
    2  A    between atoms: C_3  and  C_4
    3  A    between atoms: C_4  and  C_5
    4  A    between atoms: C_4  and  N_18
    5  A    between atoms: N_7  and  C_8
    6  A    between atoms: C_8  and  C_9
    7  A    between atoms: C_12  and  O_13
    8  A    between atoms: C_14  and  O_15
    9  A    between atoms: O_15  and  C_16
   10  A    between atoms: N_18  and  C_19
   11  A    between atoms: N_18  and  C_20
                            x       y       z     vdW  Elec       q    Type
                         _______ _______ _______ _____ _____    ______ ____

>  <TORSDO>
F 8

>  <SCORE>
-5.457

>  <RMSD_LB>
8.705

>  <RMSD_UB>
11.288

$$$$
CHEMBL4894434
 OpenBabel10162523453D

 23 23  0  0  1  0  0  0  0  0999 V2000
  144.9230  139.0020  151.7030 C   0  0  0  0  0  0  0  0  0  0  0  0
  144.6820  139.0050  150.4960 O   0  0  0  0  0  0  0  0  0  0  0  0
  144.2090  138.2530  152.6140 N   0  0  0  0  0  0  0  0  0  0  0  0
  144.4550  138.3010  153.5660 H   0  0  0  0  0  0  0  0  0  0  0  0
  146.0700  139.8490  152.3120 C   0  0  1  0  0  3  0  0  0  0  0  0
  146.8830  139.0100  153.2610 N   0  0  0  0  0  4  0  0  0  0  0  0
  148.1730  138.6350  152.6640 C   0  0  0  0  0  1  0  0  0  0  0  0
  147.1600  139.7470  154.5050 C   0  0  0  0  0  1  0  0  0  0  0  0
  146.3350  138.1730  153.4590 H   0  0  0  0  0  0  0  0  0  0  0  0
  146.9270  140.4340  151.1600 C   0  0  0  0  0  2  0  0  0  0  0  0
  145.8090  142.6320  150.6770 C   0  0  0  0  0  2  0  0  0  0  0  0
  146.8910  141.9360  151.0560 C   0  0  0  0  0  3  0  0  0  0  0  0
  143.1130  137.4030  152.2190 C   0  0  0  0  0  2  0  0  0  0  0  0
  141.7980  137.8930  152.7650 C   0  0  0  0  0  0  0  0  0  0  0  0
  141.6980  138.3220  154.0910 C   0  0  0  0  0  3  0  0  0  0  0  0
  140.4770  138.7740  154.5960 C   0  0  0  0  0  3  0  0  0  0  0  0
  139.3390  138.7910  153.7830 C   0  0  0  0  0  0  0  0  0  0  0  0
  139.4140  138.3510  152.4550 C   0  0  0  0  0  0  0  0  0  0  0  0
  140.6490  137.9060  151.9630 C   0  0  0  0  0  3  0  0  0  0  0  0
  138.1690  139.2470  154.3230 O   0  0  0  0  0  0  0  0  0  0  0  0
  137.4890  138.6410  154.5460 H   0  0  0  0  0  0  0  0  0  0  0  0
  138.4160  138.2910  151.5200 O   0  0  0  0  0  0  0  0  0  0  0  0
  138.0200  137.0160  151.0390 C   0  0  0  0  0  1  0  0  0  0  0  0
  1  5  1  0  0  0  0
  1  3  1  0  0  0  0
  2  1  2  0  0  0  0
  3  4  1  0  0  0  0
  5 10  1  6  0  0  0
  5  6  1  0  0  0  0
  6  9  1  0  0  0  0
  6  8  1  0  0  0  0
  7  6  1  0  0  0  0
 11 12  2  0  0  0  0
 12 10  1  0  0  0  0
 13  3  1  0  0  0  0
 13 14  1  0  0  0  0
 14 15  1  0  0  0  0
 15 16  2  0  0  0  0
 17 20  1  0  0  0  0
 17 16  1  0  0  0  0
 18 17  2  0  0  0  0
 19 18  1  0  0  0  0
 19 14  2  0  0  0  0
 20 21  1  0  0  0  0
 22 18  1  0  0  0  0
 23 22  1  0  0  0  0
M  END
>  <MODEL>
4

>  <REMARK>
 VINA RESULT:    -5.398      1.925      2.747
 INTER + INTRA:          -8.534
 INTER:                  -7.892
 INTRA:                  -0.642
 UNBOUND:                -0.769
  Name = CHEMBL4894434
  11 active torsions:
  status: ('A' for Active; 'I' for Inactive)
    1  A    between atoms: C_2  and  C_3
    2  A    between atoms: C_3  and  C_4
    3  A    between atoms: C_4  and  C_5
    4  A    between atoms: C_4  and  N_18
    5  A    between atoms: N_7  and  C_8
    6  A    between atoms: C_8  and  C_9
    7  A    between atoms: C_12  and  O_13
    8  A    between atoms: C_14  and  O_15
    9  A    between atoms: O_15  and  C_16
   10  A    between atoms: N_18  and  C_19
   11  A    between atoms: N_18  and  C_20
                            x       y       z     vdW  Elec       q    Type
                         _______ _______ _______ _____ _____    ______ ____

>  <TORSDO>
F 8

>  <SCORE>
-5.398

>  <RMSD_LB>
1.925

>  <RMSD_UB>
2.747

$$$$
CHEMBL4894434
 OpenBabel10162523453D

 23 23  0  0  1  0  0  0  0  0999 V2000
  135.7200  135.4450  148.9740 C   0  0  0  0  0  0  0  0  0  0  0  0
  136.5970  134.7970  148.4030 O   0  0  0  0  0  0  0  0  0  0  0  0
  135.9670  136.2570  150.0600 N   0  0  0  0  0  0  0  0  0  0  0  0
  135.2160  136.7450  150.4690 H   0  0  0  0  0  0  0  0  0  0  0  0
  134.2410  135.4060  148.5120 C   0  0  1  0  0  3  0  0  0  0  0  0
  134.0540  136.2800  147.3010 N   0  0  0  0  0  4  0  0  0  0  0  0
  133.9790  135.4740  146.0730 C   0  0  0  0  0  1  0  0  0  0  0  0
  132.8100  137.0600  147.4050 C   0  0  0  0  0  1  0  0  0  0  0  0
  134.8610  136.9030  147.2600 H   0  0  0  0  0  0  0  0  0  0  0  0
  133.8370  133.9320  148.2440 C   0  0  0  0  0  2  0  0  0  0  0  0
  132.5030  133.8910  150.3720 C   0  0  0  0  0  2  0  0  0  0  0  0
  132.7520  133.4080  149.1470 C   0  0  0  0  0  3  0  0  0  0  0  0
  137.2890  136.4160  150.6150 C   0  0  0  0  0  2  0  0  0  0  0  0
  137.8580  137.7800  150.3240 C   0  0  0  0  0  0  0  0  0  0  0  0
  138.7940  138.3560  151.1880 C   0  0  0  0  0  3  0  0  0  0  0  0
  139.3190  139.6210  150.9170 C   0  0  0  0  0  3  0  0  0  0  0  0
  138.9060  140.3290  149.7840 C   0  0  0  0  0  0  0  0  0  0  0  0
  137.9580  139.7780  148.9130 C   0  0  0  0  0  0  0  0  0  0  0  0
  137.4450  138.5040  149.1970 C   0  0  0  0  0  3  0  0  0  0  0  0
  139.4520  141.5630  149.5610 O   0  0  0  0  0  0  0  0  0  0  0  0
  139.5290  141.8900  148.6860 H   0  0  0  0  0  0  0  0  0  0  0  0
  137.4340  140.3190  147.7690 O   0  0  0  0  0  0  0  0  0  0  0  0
  136.9550  139.4370  146.7660 C   0  0  0  0  0  1  0  0  0  0  0  0
  1  3  1  0  0  0  0
  2  1  2  0  0  0  0
  3  4  1  0  0  0  0
  3 13  1  0  0  0  0
  5 10  1  6  0  0  0
  5  1  1  0  0  0  0
  6  8  1  0  0  0  0
  6  5  1  0  0  0  0
  7  6  1  0  0  0  0
  9  6  1  0  0  0  0
 10 12  1  0  0  0  0
 12 11  2  0  0  0  0
 14 13  1  0  0  0  0
 14 15  1  0  0  0  0
 16 15  2  0  0  0  0
 17 16  1  0  0  0  0
 18 19  1  0  0  0  0
 18 17  2  0  0  0  0
 19 14  2  0  0  0  0
 20 17  1  0  0  0  0
 21 20  1  0  0  0  0
 22 18  1  0  0  0  0
 23 22  1  0  0  0  0
M  END
>  <MODEL>
5

>  <REMARK>
 VINA RESULT:    -5.169      6.751     10.819
 INTER + INTRA:          -8.203
 INTER:                  -7.624
 INTRA:                  -0.579
 UNBOUND:                -0.769
  Name = CHEMBL4894434
  11 active torsions:
  status: ('A' for Active; 'I' for Inactive)
    1  A    between atoms: C_2  and  C_3
    2  A    between atoms: C_3  and  C_4
    3  A    between atoms: C_4  and  C_5
    4  A    between atoms: C_4  and  N_18
    5  A    between atoms: N_7  and  C_8
    6  A    between atoms: C_8  and  C_9
    7  A    between atoms: C_12  and  O_13
    8  A    between atoms: C_14  and  O_15
    9  A    between atoms: O_15  and  C_16
   10  A    between atoms: N_18  and  C_19
   11  A    between atoms: N_18  and  C_20
                            x       y       z     vdW  Elec       q    Type
                         _______ _______ _______ _____ _____    ______ ____

>  <TORSDO>
F 8

>  <SCORE>
-5.169

>  <RMSD_LB>
6.751

>  <RMSD_UB>
10.819

$$$$
CHEMBL4894434
 OpenBabel10162523453D

 23 23  0  0  1  0  0  0  0  0999 V2000
  136.8780  138.3970  148.6530 C   0  0  0  0  0  0  0  0  0  0  0  0
  137.3500  139.3860  149.2100 O   0  0  0  0  0  0  0  0  0  0  0  0
  136.7940  137.1590  149.2540 N   0  0  0  0  0  0  0  0  0  0  0  0
  136.4050  136.4090  148.7470 H   0  0  0  0  0  0  0  0  0  0  0  0
  136.3230  138.4570  147.2060 C   0  0  1  0  0  3  0  0  0  0  0  0
  137.4100  138.8770  146.2540 N   0  0  0  0  0  4  0  0  0  0  0  0
  138.1270  137.7100  145.7200 C   0  0  0  0  0  1  0  0  0  0  0  0
  136.8480  139.6190  145.1130 C   0  0  0  0  0  1  0  0  0  0  0  0
  138.0510  139.4690  146.7800 H   0  0  0  0  0  0  0  0  0  0  0  0
  135.7220  137.0740  146.8420 C   0  0  0  0  0  2  0  0  0  0  0  0
  133.3710  137.0690  147.7300 C   0  0  0  0  0  2  0  0  0  0  0  0
  134.2230  137.0640  146.6950 C   0  0  0  0  0  3  0  0  0  0  0  0
  137.2560  136.9260  150.6000 C   0  0  0  0  0  2  0  0  0  0  0  0
  136.1680  136.3610  151.4760 C   0  0  0  0  0  0  0  0  0  0  0  0
  136.4010  136.1290  152.8340 C   0  0  0  0  0  3  0  0  0  0  0  0
  135.3930  135.6030  153.6430 C   0  0  0  0  0  3  0  0  0  0  0  0
  134.1410  135.2930  153.1000 C   0  0  0  0  0  0  0  0  0  0  0  0
  133.8910  135.5030  151.7390 C   0  0  0  0  0  0  0  0  0  0  0  0
  134.9130  136.0370  150.9410 C   0  0  0  0  0  3  0  0  0  0  0  0
  133.1850  134.7840  153.9350 O   0  0  0  0  0  0  0  0  0  0  0  0
  133.4020  134.0910  154.5280 H   0  0  0  0  0  0  0  0  0  0  0  0
  132.7420  135.2570  151.0350 O   0  0  0  0  0  0  0  0  0  0  0  0
  132.6070  134.0030  150.3840 C   0  0  0  0  0  1  0  0  0  0  0  0
  1  2  2  0  0  0  0
  1  3  1  0  0  0  0
  3 13  1  0  0  0  0
  4  3  1  0  0  0  0
  5 10  1  6  0  0  0
  5  1  1  0  0  0  0
  6  9  1  0  0  0  0
  6  5  1  0  0  0  0
  7  6  1  0  0  0  0
  8  6  1  0  0  0  0
 12 10  1  0  0  0  0
 12 11  2  0  0  0  0
 13 14  1  0  0  0  0
 14 15  1  0  0  0  0
 15 16  2  0  0  0  0
 17 16  1  0  0  0  0
 17 20  1  0  0  0  0
 18 17  2  0  0  0  0
 19 14  2  0  0  0  0
 19 18  1  0  0  0  0
 20 21  1  0  0  0  0
 22 18  1  0  0  0  0
 23 22  1  0  0  0  0
M  END
>  <MODEL>
6

>  <REMARK>
 VINA RESULT:    -5.156      8.211     10.058
 INTER + INTRA:          -8.186
 INTER:                  -7.254
 INTRA:                  -0.932
 UNBOUND:                -0.769
  Name = CHEMBL4894434
  11 active torsions:
  status: ('A' for Active; 'I' for Inactive)
    1  A    between atoms: C_2  and  C_3
    2  A    between atoms: C_3  and  C_4
    3  A    between atoms: C_4  and  C_5
    4  A    between atoms: C_4  and  N_18
    5  A    between atoms: N_7  and  C_8
    6  A    between atoms: C_8  and  C_9
    7  A    between atoms: C_12  and  O_13
    8  A    between atoms: C_14  and  O_15
    9  A    between atoms: O_15  and  C_16
   10  A    between atoms: N_18  and  C_19
   11  A    between atoms: N_18  and  C_20
                            x       y       z     vdW  Elec       q    Type
                         _______ _______ _______ _____ _____    ______ ____

>  <TORSDO>
F 8

>  <SCORE>
-5.156

>  <RMSD_LB>
8.211

>  <RMSD_UB>
10.058

$$$$
CHEMBL4894434
 OpenBabel10162523453D

 23 23  0  0  1  0  0  0  0  0999 V2000
  133.7130  136.3650  146.4730 C   0  0  0  0  0  0  0  0  0  0  0  0
  133.7710  135.7880  145.3880 O   0  0  0  0  0  0  0  0  0  0  0  0
  133.4530  137.7130  146.5990 N   0  0  0  0  0  0  0  0  0  0  0  0
  133.4240  138.1100  147.4990 H   0  0  0  0  0  0  0  0  0  0  0  0
  133.9260  135.6150  147.8130 C   0  0  1  0  0  3  0  0  0  0  0  0
  134.1040  136.6030  148.9350 N   0  0  0  0  0  4  0  0  0  0  0  0
  132.9500  136.5850  149.8450 C   0  0  0  0  0  1  0  0  0  0  0  0
  135.3060  136.2870  149.7250 C   0  0  0  0  0  1  0  0  0  0  0  0
  134.1950  137.5240  148.5060 H   0  0  0  0  0  0  0  0  0  0  0  0
  132.7250  134.6630  148.0520 C   0  0  0  0  0  2  0  0  0  0  0  0
  134.3710  132.8070  148.4460 C   0  0  0  0  0  2  0  0  0  0  0  0
  133.1060  133.2290  148.3080 C   0  0  0  0  0  3  0  0  0  0  0  0
  133.2220  138.5610  145.4550 C   0  0  0  0  0  2  0  0  0  0  0  0
  134.5080  139.1160  144.9010 C   0  0  0  0  0  0  0  0  0  0  0  0
  135.6710  139.1180  145.6760 C   0  0  0  0  0  3  0  0  0  0  0  0
  136.8610  139.6350  145.1620 C   0  0  0  0  0  3  0  0  0  0  0  0
  136.8990  140.1670  143.8680 C   0  0  0  0  0  0  0  0  0  0  0  0
  135.7420  140.1890  143.0800 C   0  0  0  0  0  0  0  0  0  0  0  0
  134.5560  139.6600  143.6100 C   0  0  0  0  0  3  0  0  0  0  0  0
  138.0890  140.6580  143.4090 O   0  0  0  0  0  0  0  0  0  0  0  0
  138.7720  140.8740  144.0140 H   0  0  0  0  0  0  0  0  0  0  0  0
  135.5870  140.6680  141.8060 O   0  0  0  0  0  0  0  0  0  0  0  0
  135.1270  142.0010  141.6400 C   0  0  0  0  0  1  0  0  0  0  0  0
  1  3  1  0  0  0  0
  1  5  1  0  0  0  0
  2  1  2  0  0  0  0
  3  4  1  0  0  0  0
  5 10  1  1  0  0  0
  5  6  1  0  0  0  0
  6  8  1  0  0  0  0
  6  7  1  0  0  0  0
  9  6  1  0  0  0  0
 10 12  1  0  0  0  0
 12 11  2  0  0  0  0
 13  3  1  0  0  0  0
 14 13  1  0  0  0  0
 14 15  1  0  0  0  0
 16 15  2  0  0  0  0
 17 16  1  0  0  0  0
 18 19  1  0  0  0  0
 18 17  2  0  0  0  0
 19 14  2  0  0  0  0
 20 17  1  0  0  0  0
 20 21  1  0  0  0  0
 22 18  1  0  0  0  0
 23 22  1  0  0  0  0
M  END
>  <MODEL>
7

>  <REMARK>
 VINA RESULT:    -5.027     10.460     13.049
 INTER + INTRA:          -8.000
 INTER:                  -7.465
 INTRA:                  -0.536
 UNBOUND:                -0.769
  Name = CHEMBL4894434
  11 active torsions:
  status: ('A' for Active; 'I' for Inactive)
    1  A    between atoms: C_2  and  C_3
    2  A    between atoms: C_3  and  C_4
    3  A    between atoms: C_4  and  C_5
    4  A    between atoms: C_4  and  N_18
    5  A    between atoms: N_7  and  C_8
    6  A    between atoms: C_8  and  C_9
    7  A    between atoms: C_12  and  O_13
    8  A    between atoms: C_14  and  O_15
    9  A    between atoms: O_15  and  C_16
   10  A    between atoms: N_18  and  C_19
   11  A    between atoms: N_18  and  C_20
                            x       y       z     vdW  Elec       q    Type
                         _______ _______ _______ _____ _____    ______ ____

>  <TORSDO>
F 8

>  <SCORE>
-5.027

>  <RMSD_LB>
10.460

>  <RMSD_UB>
13.049

$$$$
CHEMBL4894434
 OpenBabel10162523453D

 23 23  0  0  1  0  0  0  0  0999 V2000
  136.9780  137.1720  150.3260 C   0  0  0  0  0  0  0  0  0  0  0  0
  137.0120  138.1440  149.5730 O   0  0  0  0  0  0  0  0  0  0  0  0
  137.8070  137.0330  151.4180 N   0  0  0  0  0  0  0  0  0  0  0  0
  137.7260  136.2260  151.9770 H   0  0  0  0  0  0  0  0  0  0  0  0
  135.9810  136.0040  150.1110 C   0  0  1  0  0  3  0  0  0  0  0  0
  135.7280  135.8050  148.6410 N   0  0  0  0  0  4  0  0  0  0  0  0
  136.5960  134.7540  148.0900 C   0  0  0  0  0  1  0  0  0  0  0  0
  134.3310  135.4070  148.3990 C   0  0  0  0  0  1  0  0  0  0  0  0
  135.9260  136.6950  148.1840 H   0  0  0  0  0  0  0  0  0  0  0  0
  136.5490  134.7290  150.7880 C   0  0  0  0  0  2  0  0  0  0  0  0
  134.3810  134.1610  151.9230 C   0  0  0  0  0  2  0  0  0  0  0  0
  135.7210  134.2090  151.9330 C   0  0  0  0  0  3  0  0  0  0  0  0
  138.7880  138.0290  151.7700 C   0  0  0  0  0  2  0  0  0  0  0  0
  140.1830  137.5930  151.4090 C   0  0  0  0  0  0  0  0  0  0  0  0
  141.2270  137.7270  152.3290 C   0  0  0  0  0  3  0  0  0  0  0  0
  142.5210  137.3240  151.9910 C   0  0  0  0  0  3  0  0  0  0  0  0
  142.7870  136.7930  150.7250 C   0  0  0  0  0  0  0  0  0  0  0  0
  141.7590  136.6640  149.7830 C   0  0  0  0  0  0  0  0  0  0  0  0
  140.4640  137.0690  150.1400 C   0  0  0  0  0  3  0  0  0  0  0  0
  144.0690  136.4100  150.4440 O   0  0  0  0  0  0  0  0  0  0  0  0
  144.6830  136.2820  151.1410 H   0  0  0  0  0  0  0  0  0  0  0  0
  141.8300  136.1770  148.5050 O   0  0  0  0  0  0  0  0  0  0  0  0
  140.8920  136.6510  147.5510 C   0  0  0  0  0  1  0  0  0  0  0  0
  1  3  1  0  0  0  0
  2  1  2  0  0  0  0
  3 13  1  0  0  0  0
  3  4  1  0  0  0  0
  5  1  1  0  0  0  0
  5 10  1  6  0  0  0
  6  5  1  0  0  0  0
  7  6  1  0  0  0  0
  8  6  1  0  0  0  0
  9  6  1  0  0  0  0
 10 12  1  0  0  0  0
 11 12  2  0  0  0  0
 14 13  1  0  0  0  0
 14 15  1  0  0  0  0
 16 15  2  0  0  0  0
 17 16  1  0  0  0  0
 18 19  1  0  0  0  0
 18 17  2  0  0  0  0
 19 14  2  0  0  0  0
 20 17  1  0  0  0  0
 20 21  1  0  0  0  0
 22 18  1  0  0  0  0
 23 22  1  0  0  0  0
M  END
>  <MODEL>
8

>  <REMARK>
 VINA RESULT:    -4.898      4.801      8.978
 INTER + INTRA:          -7.814
 INTER:                  -7.138
 INTRA:                  -0.676
 UNBOUND:                -0.769
  Name = CHEMBL4894434
  11 active torsions:
  status: ('A' for Active; 'I' for Inactive)
    1  A    between atoms: C_2  and  C_3
    2  A    between atoms: C_3  and  C_4
    3  A    between atoms: C_4  and  C_5
    4  A    between atoms: C_4  and  N_18
    5  A    between atoms: N_7  and  C_8
    6  A    between atoms: C_8  and  C_9
    7  A    between atoms: C_12  and  O_13
    8  A    between atoms: C_14  and  O_15
    9  A    between atoms: O_15  and  C_16
   10  A    between atoms: N_18  and  C_19
   11  A    between atoms: N_18  and  C_20
                            x       y       z     vdW  Elec       q    Type
                         _______ _______ _______ _____ _____    ______ ____

>  <TORSDO>
F 8

>  <SCORE>
-4.898

>  <RMSD_LB>
4.801

>  <RMSD_UB>
8.978

$$$$
CHEMBL4894434
 OpenBabel10162523453D

 23 23  0  0  1  0  0  0  0  0999 V2000
  134.1000  136.5210  147.8130 C   0  0  0  0  0  0  0  0  0  0  0  0
  135.0560  137.2500  148.0750 O   0  0  0  0  0  0  0  0  0  0  0  0
  133.0550  136.3020  148.6850 N   0  0  0  0  0  0  0  0  0  0  0  0
  132.3230  135.7040  148.4100 H   0  0  0  0  0  0  0  0  0  0  0  0
  133.9830  135.7780  146.4570 C   0  0  1  0  0  3  0  0  0  0  0  0
  134.1690  136.7470  145.3200 N   0  0  0  0  0  4  0  0  0  0  0  0
  134.8980  136.1230  144.2060 C   0  0  0  0  0  1  0  0  0  0  0  0
  132.8670  137.2050  144.8050 C   0  0  0  0  0  1  0  0  0  0  0  0
  134.7020  137.5350  145.6870 H   0  0  0  0  0  0  0  0  0  0  0  0
  135.0220  134.6260  146.4250 C   0  0  0  0  0  2  0  0  0  0  0  0
  133.4030  133.0310  147.4960 C   0  0  0  0  0  2  0  0  0  0  0  0
  134.6610  133.4370  147.2760 C   0  0  0  0  0  3  0  0  0  0  0  0
  132.9990  136.9210  149.9870 C   0  0  0  0  0  2  0  0  0  0  0  0
  133.3340  135.9460  151.0850 C   0  0  0  0  0  0  0  0  0  0  0  0
  133.2260  134.5690  150.8670 C   0  0  0  0  0  3  0  0  0  0  0  0
  133.5350  133.6670  151.8870 C   0  0  0  0  0  3  0  0  0  0  0  0
  133.9460  134.1330  153.1410 C   0  0  0  0  0  0  0  0  0  0  0  0
  134.0460  135.5080  153.3850 C   0  0  0  0  0  0  0  0  0  0  0  0
  133.7370  136.4000  152.3480 C   0  0  0  0  0  3  0  0  0  0  0  0
  134.2400  133.2090  154.1050 O   0  0  0  0  0  0  0  0  0  0  0  0
  134.5840  133.4880  154.9310 H   0  0  0  0  0  0  0  0  0  0  0  0
  134.4210  136.1430  154.5390 O   0  0  0  0  0  0  0  0  0  0  0  0
  135.8030  136.1960  154.8590 C   0  0  0  0  0  1  0  0  0  0  0  0
  1  2  2  0  0  0  0
  1  3  1  0  0  0  0
  3 13  1  0  0  0  0
  4  3  1  0  0  0  0
  5 10  1  1  0  0  0
  5  1  1  0  0  0  0
  6  9  1  0  0  0  0
  6  5  1  0  0  0  0
  7  6  1  0  0  0  0
  8  6  1  0  0  0  0
 10 12  1  0  0  0  0
 12 11  2  0  0  0  0
 13 14  1  0  0  0  0
 14 19  1  0  0  0  0
 15 14  2  0  0  0  0
 15 16  1  0  0  0  0
 16 17  2  0  0  0  0
 17 18  1  0  0  0  0
 17 20  1  0  0  0  0
 18 22  1  0  0  0  0
 19 18  2  0  0  0  0
 20 21  1  0  0  0  0
 22 23  1  0  0  0  0
M  END
>  <MODEL>
9

>  <REMARK>
 VINA RESULT:    -4.867      9.944     12.186
 INTER + INTRA:          -7.770
 INTER:                  -7.001
 INTRA:                  -0.769
 UNBOUND:                -0.769
  Name = CHEMBL4894434
  11 active torsions:
  status: ('A' for Active; 'I' for Inactive)
    1  A    between atoms: C_2  and  C_3
    2  A    between atoms: C_3  and  C_4
    3  A    between atoms: C_4  and  C_5
    4  A    between atoms: C_4  and  N_18
    5  A    between atoms: N_7  and  C_8
    6  A    between atoms: C_8  and  C_9
    7  A    between atoms: C_12  and  O_13
    8  A    between atoms: C_14  and  O_15
    9  A    between atoms: O_15  and  C_16
   10  A    between atoms: N_18  and  C_19
   11  A    between atoms: N_18  and  C_20
                            x       y       z     vdW  Elec       q    Type
                         _______ _______ _______ _____ _____    ______ ____

>  <TORSDO>
F 8

>  <SCORE>
-4.867

>  <RMSD_LB>
9.944

>  <RMSD_UB>
12.186

$$$$
