CHEMBL330301
 OpenBabel10172500053D

 27 28  0  0  0  0  0  0  0  0999 V2000
  143.4040  138.3590  152.3180 N   0  0  0  0  0  0  0  0  0  0  0  0
  144.2800  137.9190  153.2850 C   0  0  0  0  0  0  0  0  0  0  0  0
  144.2760  136.7760  153.7280 O   0  0  0  0  0  0  0  0  0  0  0  0
  143.4840  139.2790  151.9790 H   0  0  0  0  0  0  0  0  0  0  0  0
  142.3700  137.4990  151.7900 C   0  0  0  0  0  2  0  0  0  0  0  0
  138.6010  137.6800  152.4060 C   0  0  0  0  0  0  0  0  0  0  0  0
  139.8400  137.4590  151.7930 C   0  0  0  0  0  3  0  0  0  0  0  0
  141.0440  137.7020  152.4820 C   0  0  0  0  0  0  0  0  0  0  0  0
  140.9920  138.1360  153.8130 C   0  0  0  0  0  3  0  0  0  0  0  0
  139.7630  138.3570  154.4350 C   0  0  0  0  0  3  0  0  0  0  0  0
  138.5800  138.1350  153.7320 C   0  0  0  0  0  0  0  0  0  0  0  0
  137.3360  136.6510  150.6670 C   0  0  0  0  0  1  0  0  0  0  0  0
  137.3830  137.4930  151.8100 O   0  0  0  0  0  0  0  0  0  0  0  0
  137.3750  138.3630  154.3430 O   0  0  0  0  0  0  0  0  0  0  0  0
  136.5880  138.0160  153.9710 H   0  0  0  0  0  0  0  0  0  0  0  0
  145.3030  138.9620  153.7000 C   0  0  0  0  0  2  0  0  0  0  0  0
  146.5920  138.3010  154.1780 C   0  0  0  0  0  2  0  0  0  0  0  0
  147.6980  138.3870  153.1280 C   0  0  0  0  0  2  0  0  0  0  0  0
  148.9000  139.1720  153.6580 C   0  0  0  0  0  2  0  0  0  0  0  0
  148.4550  140.3370  154.5430 C   0  0  0  0  0  2  0  0  0  0  0  0
  148.7660  141.6830  153.8870 C   0  0  0  0  0  2  0  0  0  0  0  0
  147.8130  141.9980  152.7620 C   0  0  0  0  0  0  0  0  0  0  0  0
  146.4520  142.2110  153.0170 C   0  0  0  0  0  3  0  0  0  0  0  0
  145.5780  142.5210  151.9740 C   0  0  0  0  0  3  0  0  0  0  0  0
  146.0530  142.6120  150.6670 C   0  0  0  0  0  3  0  0  0  0  0  0
  147.4010  142.3810  150.4000 C   0  0  0  0  0  3  0  0  0  0  0  0
  148.2770  142.0710  151.4410 C   0  0  0  0  0  3  0  0  0  0  0  0
  1  2  1  0  0  0  0
  2 16  1  0  0  0  0
  2  3  2  0  0  0  0
  4  1  1  0  0  0  0
  5  1  1  0  0  0  0
  5  8  1  0  0  0  0
  6 11  1  0  0  0  0
  7  6  2  0  0  0  0
  7  8  1  0  0  0  0
  8  9  2  0  0  0  0
  9 10  1  0  0  0  0
 11 14  1  0  0  0  0
 11 10  2  0  0  0  0
 12 13  1  0  0  0  0
 13  6  1  0  0  0  0
 15 14  1  0  0  0  0
 16 17  1  0  0  0  0
 18 19  1  0  0  0  0
 18 17  1  0  0  0  0
 19 20  1  0  0  0  0
 21 20  1  0  0  0  0
 22 23  1  0  0  0  0
 22 21  1  0  0  0  0
 24 23  2  0  0  0  0
 25 24  1  0  0  0  0
 26 25  2  0  0  0  0
 26 27  1  0  0  0  0
 27 22  2  0  0  0  0
M  END
>  <MODEL>
1

>  <REMARK>
 VINA RESULT:    -7.179      0.000      0.000
 INTER + INTRA:         -13.117
 INTER:                 -11.823
 INTRA:                  -1.294
 UNBOUND:                -1.530
  Name = CHEMBL330301
  12 active torsions:
  status: ('A' for Active; 'I' for Inactive)
    1  A    between atoms: C_1  and  O_2
    2  A    between atoms: O_2  and  C_3
    3  A    between atoms: C_5  and  C_6
    4  A    between atoms: C_6  and  N_7
    5  A    between atoms: C_8  and  C_10
    6  A    between atoms: C_10  and  C_11
    7  A    between atoms: C_11  and  C_12
    8  A    between atoms: C_12  and  C_13
    9  A    between atoms: C_13  and  C_14
   10  A    between atoms: C_14  and  C_15
   11  A    between atoms: C_15  and  C_16
   12  A    between atoms: C_24  and  O_25
                            x       y       z     vdW  Elec       q    Type
                         _______ _______ _______ _____ _____    ______ ____

>  <TORSDO>
F 11

>  <SCORE>
-7.179

>  <RMSD_LB>
0.000

>  <RMSD_UB>
0.000

$$$$
CHEMBL330301
 OpenBabel10172500053D

 27 28  0  0  0  0  0  0  0  0999 V2000
  143.5350  137.6830  151.3310 N   0  0  0  0  0  0  0  0  0  0  0  0
  144.0300  138.0140  152.5710 C   0  0  0  0  0  0  0  0  0  0  0  0
  143.5900  137.5530  153.6180 O   0  0  0  0  0  0  0  0  0  0  0  0
  143.9580  138.0610  150.5260 H   0  0  0  0  0  0  0  0  0  0  0  0
  142.4050  136.7930  151.1820 C   0  0  0  0  0  2  0  0  0  0  0  0
  139.1150  137.7560  149.4900 C   0  0  0  0  0  0  0  0  0  0  0  0
  140.2820  137.0620  149.8340 C   0  0  0  0  0  3  0  0  0  0  0  0
  141.1300  137.5310  150.8550 C   0  0  0  0  0  0  0  0  0  0  0  0
  140.7760  138.6920  151.5560 C   0  0  0  0  0  3  0  0  0  0  0  0
  139.6150  139.3890  151.2240 C   0  0  0  0  0  3  0  0  0  0  0  0
  138.7970  138.9240  150.1950 C   0  0  0  0  0  0  0  0  0  0  0  0
  138.2700  136.0330  148.0760 C   0  0  0  0  0  1  0  0  0  0  0  0
  138.2430  137.3880  148.5010 O   0  0  0  0  0  0  0  0  0  0  0  0
  137.6630  139.6190  149.8640 O   0  0  0  0  0  0  0  0  0  0  0  0
  137.0010  139.2130  149.3390 H   0  0  0  0  0  0  0  0  0  0  0  0
  145.2270  138.9480  152.5190 C   0  0  0  0  0  2  0  0  0  0  0  0
  146.1970  138.6560  153.6600 C   0  0  0  0  0  2  0  0  0  0  0  0
  147.5520  138.1760  153.1470 C   0  0  0  0  0  2  0  0  0  0  0  0
  148.6810  139.0820  153.6420 C   0  0  0  0  0  2  0  0  0  0  0  0
  148.1400  140.2180  154.5120 C   0  0  0  0  0  2  0  0  0  0  0  0
  148.5280  141.5830  153.9450 C   0  0  0  0  0  2  0  0  0  0  0  0
  147.6800  141.9680  152.7590 C   0  0  0  0  0  0  0  0  0  0  0  0
  148.2280  142.0010  151.4700 C   0  0  0  0  0  3  0  0  0  0  0  0
  147.4340  142.3400  150.3730 C   0  0  0  0  0  3  0  0  0  0  0  0
  146.0890  142.6570  150.5550 C   0  0  0  0  0  3  0  0  0  0  0  0
  145.5390  142.6470  151.8360 C   0  0  0  0  0  3  0  0  0  0  0  0
  146.3310  142.3090  152.9330 C   0  0  0  0  0  3  0  0  0  0  0  0
  1  2  1  0  0  0  0
  2  3  2  0  0  0  0
  4  1  1  0  0  0  0
  5  1  1  0  0  0  0
  6  7  2  0  0  0  0
  6 11  1  0  0  0  0
  7  8  1  0  0  0  0
  8  5  1  0  0  0  0
  8  9  2  0  0  0  0
 10  9  1  0  0  0  0
 11 10  2  0  0  0  0
 12 13  1  0  0  0  0
 13  6  1  0  0  0  0
 14 11  1  0  0  0  0
 15 14  1  0  0  0  0
 16  2  1  0  0  0  0
 16 17  1  0  0  0  0
 18 19  1  0  0  0  0
 18 17  1  0  0  0  0
 19 20  1  0  0  0  0
 21 20  1  0  0  0  0
 22 27  1  0  0  0  0
 22 21  1  0  0  0  0
 23 22  2  0  0  0  0
 24 25  2  0  0  0  0
 24 23  1  0  0  0  0
 25 26  1  0  0  0  0
 26 27  2  0  0  0  0
M  END
>  <MODEL>
2

>  <REMARK>
 VINA RESULT:    -6.492      1.735      2.160
 INTER + INTRA:         -12.007
 INTER:                 -10.430
 INTRA:                  -1.577
 UNBOUND:                -1.530
  Name = CHEMBL330301
  12 active torsions:
  status: ('A' for Active; 'I' for Inactive)
    1  A    between atoms: C_1  and  O_2
    2  A    between atoms: O_2  and  C_3
    3  A    between atoms: C_5  and  C_6
    4  A    between atoms: C_6  and  N_7
    5  A    between atoms: C_8  and  C_10
    6  A    between atoms: C_10  and  C_11
    7  A    between atoms: C_11  and  C_12
    8  A    between atoms: C_12  and  C_13
    9  A    between atoms: C_13  and  C_14
   10  A    between atoms: C_14  and  C_15
   11  A    between atoms: C_15  and  C_16
   12  A    between atoms: C_24  and  O_25
                            x       y       z     vdW  Elec       q    Type
                         _______ _______ _______ _____ _____    ______ ____

>  <TORSDO>
F 11

>  <SCORE>
-6.492

>  <RMSD_LB>
1.735

>  <RMSD_UB>
2.160

$$$$
CHEMBL330301
 OpenBabel10172500053D

 27 28  0  0  0  0  0  0  0  0999 V2000
  145.0130  138.1750  149.8230 N   0  0  0  0  0  0  0  0  0  0  0  0
  145.4470  137.3410  148.8170 C   0  0  0  0  0  0  0  0  0  0  0  0
  145.9030  137.7470  147.7550 O   0  0  0  0  0  0  0  0  0  0  0  0
  144.6910  137.7840  150.6670 H   0  0  0  0  0  0  0  0  0  0  0  0
  145.0190  139.6120  149.6660 C   0  0  0  0  0  2  0  0  0  0  0  0
  145.7080  140.3090  153.3610 C   0  0  0  0  0  0  0  0  0  0  0  0
  145.3810  139.6510  152.1700 C   0  0  0  0  0  3  0  0  0  0  0  0
  145.4170  140.3260  150.9350 C   0  0  0  0  0  0  0  0  0  0  0  0
  145.8230  141.6670  150.9030 C   0  0  0  0  0  3  0  0  0  0  0  0
  146.1550  142.3320  152.0840 C   0  0  0  0  0  3  0  0  0  0  0  0
  146.0910  141.6550  153.3010 C   0  0  0  0  0  0  0  0  0  0  0  0
  144.4140  139.5970  155.2330 C   0  0  0  0  0  1  0  0  0  0  0  0
  145.6810  139.7410  154.6080 O   0  0  0  0  0  0  0  0  0  0  0  0
  146.4060  142.3150  154.4600 O   0  0  0  0  0  0  0  0  0  0  0  0
  147.2930  142.5690  154.6290 H   0  0  0  0  0  0  0  0  0  0  0  0
  145.3770  135.8670  149.1770 C   0  0  0  0  0  2  0  0  0  0  0  0
  143.9630  135.4730  149.5920 C   0  0  0  0  0  2  0  0  0  0  0  0
  143.1800  134.8580  148.4340 C   0  0  0  0  0  2  0  0  0  0  0  0
  141.7150  135.2970  148.4640 C   0  0  0  0  0  2  0  0  0  0  0  0
  141.5750  136.7250  148.9930 C   0  0  0  0  0  2  0  0  0  0  0  0
  140.3020  136.8860  149.8250 C   0  0  0  0  0  2  0  0  0  0  0  0
  140.5990  137.3070  151.2420 C   0  0  0  0  0  0  0  0  0  0  0  0
  141.9140  137.3070  151.7250 C   0  0  0  0  0  3  0  0  0  0  0  0
  142.1870  137.7150  153.0320 C   0  0  0  0  0  3  0  0  0  0  0  0
  141.1480  138.1180  153.8690 C   0  0  0  0  0  3  0  0  0  0  0  0
  139.8340  138.1010  153.4050 C   0  0  0  0  0  3  0  0  0  0  0  0
  139.5600  137.6940  152.0990 C   0  0  0  0  0  3  0  0  0  0  0  0
  1  4  1  0  0  0  0
  2 16  1  0  0  0  0
  2  1  1  0  0  0  0
  3  2  2  0  0  0  0
  5  1  1  0  0  0  0
  5  8  1  0  0  0  0
  6 13  1  0  0  0  0
  7  6  2  0  0  0  0
  8  7  1  0  0  0  0
  9  8  2  0  0  0  0
  9 10  1  0  0  0  0
 10 11  2  0  0  0  0
 11  6  1  0  0  0  0
 11 14  1  0  0  0  0
 13 12  1  0  0  0  0
 14 15  1  0  0  0  0
 16 17  1  0  0  0  0
 18 19  1  0  0  0  0
 18 17  1  0  0  0  0
 19 20  1  0  0  0  0
 20 21  1  0  0  0  0
 21 22  1  0  0  0  0
 22 23  2  0  0  0  0
 22 27  1  0  0  0  0
 23 24  1  0  0  0  0
 24 25  2  0  0  0  0
 26 25  1  0  0  0  0
 27 26  2  0  0  0  0
M  END
>  <MODEL>
3

>  <REMARK>
 VINA RESULT:    -6.261      3.151      7.621
 INTER + INTRA:         -11.635
 INTER:                  -9.949
 INTRA:                  -1.686
 UNBOUND:                -1.530
  Name = CHEMBL330301
  12 active torsions:
  status: ('A' for Active; 'I' for Inactive)
    1  A    between atoms: C_1  and  O_2
    2  A    between atoms: O_2  and  C_3
    3  A    between atoms: C_5  and  C_6
    4  A    between atoms: C_6  and  N_7
    5  A    between atoms: C_8  and  C_10
    6  A    between atoms: C_10  and  C_11
    7  A    between atoms: C_11  and  C_12
    8  A    between atoms: C_12  and  C_13
    9  A    between atoms: C_13  and  C_14
   10  A    between atoms: C_14  and  C_15
   11  A    between atoms: C_15  and  C_16
   12  A    between atoms: C_24  and  O_25
                            x       y       z     vdW  Elec       q    Type
                         _______ _______ _______ _____ _____    ______ ____

>  <TORSDO>
F 11

>  <SCORE>
-6.261

>  <RMSD_LB>
3.151

>  <RMSD_UB>
7.621

$$$$
CHEMBL330301
 OpenBabel10172500053D

 27 28  0  0  0  0  0  0  0  0999 V2000
  137.2880  136.6050  149.3750 N   0  0  0  0  0  0  0  0  0  0  0  0
  136.9840  137.6530  148.5370 C   0  0  0  0  0  0  0  0  0  0  0  0
  136.8760  138.8120  148.9200 O   0  0  0  0  0  0  0  0  0  0  0  0
  137.3960  135.7020  148.9970 H   0  0  0  0  0  0  0  0  0  0  0  0
  137.4520  136.7990  150.7980 C   0  0  0  0  0  2  0  0  0  0  0  0
  135.3670  135.4680  153.7130 C   0  0  0  0  0  0  0  0  0  0  0  0
  136.1990  136.2810  152.9340 C   0  0  0  0  0  3  0  0  0  0  0  0
  136.5200  135.9320  151.6080 C   0  0  0  0  0  0  0  0  0  0  0  0
  135.9650  134.7700  151.0560 C   0  0  0  0  0  3  0  0  0  0  0  0
  135.1320  133.9530  151.8220 C   0  0  0  0  0  3  0  0  0  0  0  0
  134.8430  134.3000  153.1410 C   0  0  0  0  0  0  0  0  0  0  0  0
  136.0590  135.7180  155.9810 C   0  0  0  0  0  1  0  0  0  0  0  0
  135.0180  135.7150  155.0140 O   0  0  0  0  0  0  0  0  0  0  0  0
  134.0350  133.4900  153.8940 O   0  0  0  0  0  0  0  0  0  0  0  0
  134.1860  133.4020  154.8150 H   0  0  0  0  0  0  0  0  0  0  0  0
  136.8680  137.2520  147.0770 C   0  0  0  0  0  2  0  0  0  0  0  0
  137.8290  136.1130  146.7470 C   0  0  0  0  0  2  0  0  0  0  0  0
  137.4970  135.4590  145.4080 C   0  0  0  0  0  2  0  0  0  0  0  0
  136.8200  134.1020  145.6110 C   0  0  0  0  0  2  0  0  0  0  0  0
  135.5510  133.9830  144.7650 C   0  0  0  0  0  2  0  0  0  0  0  0
  134.3300  133.6880  145.6360 C   0  0  0  0  0  2  0  0  0  0  0  0
  133.9340  134.8750  146.4780 C   0  0  0  0  0  0  0  0  0  0  0  0
  133.9090  134.7820  147.8760 C   0  0  0  0  0  3  0  0  0  0  0  0
  133.5600  135.8880  148.6520 C   0  0  0  0  0  3  0  0  0  0  0  0
  133.2230  137.0940  148.0380 C   0  0  0  0  0  3  0  0  0  0  0  0
  133.2240  137.1900  146.6480 C   0  0  0  0  0  3  0  0  0  0  0  0
  133.5730  136.0860  145.8710 C   0  0  0  0  0  3  0  0  0  0  0  0
  1  5  1  0  0  0  0
  2  3  2  0  0  0  0
  2  1  1  0  0  0  0
  4  1  1  0  0  0  0
  5  8  1  0  0  0  0
  6 13  1  0  0  0  0
  7  6  2  0  0  0  0
  8  7  1  0  0  0  0
  9  8  2  0  0  0  0
  9 10  1  0  0  0  0
 10 11  2  0  0  0  0
 11  6  1  0  0  0  0
 11 14  1  0  0  0  0
 13 12  1  0  0  0  0
 14 15  1  0  0  0  0
 16  2  1  0  0  0  0
 17 16  1  0  0  0  0
 18 19  1  0  0  0  0
 18 17  1  0  0  0  0
 20 19  1  0  0  0  0
 20 21  1  0  0  0  0
 21 22  1  0  0  0  0
 22 23  1  0  0  0  0
 23 24  2  0  0  0  0
 25 24  1  0  0  0  0
 26 25  2  0  0  0  0
 27 22  2  0  0  0  0
 27 26  1  0  0  0  0
M  END
>  <MODEL>
4

>  <REMARK>
 VINA RESULT:    -6.211      8.464     11.402
 INTER + INTRA:         -11.554
 INTER:                  -9.124
 INTRA:                  -2.430
 UNBOUND:                -1.530
  Name = CHEMBL330301
  12 active torsions:
  status: ('A' for Active; 'I' for Inactive)
    1  A    between atoms: C_1  and  O_2
    2  A    between atoms: O_2  and  C_3
    3  A    between atoms: C_5  and  C_6
    4  A    between atoms: C_6  and  N_7
    5  A    between atoms: C_8  and  C_10
    6  A    between atoms: C_10  and  C_11
    7  A    between atoms: C_11  and  C_12
    8  A    between atoms: C_12  and  C_13
    9  A    between atoms: C_13  and  C_14
   10  A    between atoms: C_14  and  C_15
   11  A    between atoms: C_15  and  C_16
   12  A    between atoms: C_24  and  O_25
                            x       y       z     vdW  Elec       q    Type
                         _______ _______ _______ _____ _____    ______ ____

>  <TORSDO>
F 11

>  <SCORE>
-6.211

>  <RMSD_LB>
8.464

>  <RMSD_UB>
11.402

$$$$
CHEMBL330301
 OpenBabel10172500053D

 27 28  0  0  0  0  0  0  0  0999 V2000
  136.5320  134.0320  142.8370 N   0  0  0  0  0  0  0  0  0  0  0  0
  137.2380  133.0330  142.2070 C   0  0  0  0  0  0  0  0  0  0  0  0
  137.8140  133.1870  141.1360 O   0  0  0  0  0  0  0  0  0  0  0  0
  136.1220  133.8520  143.7140 H   0  0  0  0  0  0  0  0  0  0  0  0
  136.3770  135.3390  142.2390 C   0  0  0  0  0  2  0  0  0  0  0  0
  134.1830  138.3070  143.2340 C   0  0  0  0  0  0  0  0  0  0  0  0
  135.0060  137.4500  142.4950 C   0  0  0  0  0  3  0  0  0  0  0  0
  135.4550  136.2300  143.0360 C   0  0  0  0  0  0  0  0  0  0  0  0
  135.0390  135.8600  144.3210 C   0  0  0  0  0  3  0  0  0  0  0  0
  134.2170  136.7060  145.0670 C   0  0  0  0  0  3  0  0  0  0  0  0
  133.7990  137.9210  144.5250 C   0  0  0  0  0  0  0  0  0  0  0  0
  134.6760  140.5270  142.5150 C   0  0  0  0  0  1  0  0  0  0  0  0
  133.7160  139.5190  142.8000 O   0  0  0  0  0  0  0  0  0  0  0  0
  133.0010  138.7540  145.2650 O   0  0  0  0  0  0  0  0  0  0  0  0
  132.7910  138.5360  146.1520 H   0  0  0  0  0  0  0  0  0  0  0  0
  137.3010  131.7390  143.0000 C   0  0  0  0  0  2  0  0  0  0  0  0
  136.1990  131.6910  144.0540 C   0  0  0  0  0  2  0  0  0  0  0  0
  136.7430  131.3080  145.4290 C   0  0  0  0  0  2  0  0  0  0  0  0
  137.0640  132.5510  146.2600 C   0  0  0  0  0  2  0  0  0  0  0  0
  135.7910  133.3060  146.6440 C   0  0  0  0  0  2  0  0  0  0  0  0
  134.9260  132.4850  147.6010 C   0  0  0  0  0  2  0  0  0  0  0  0
  134.2160  133.3520  148.6090 C   0  0  0  0  0  0  0  0  0  0  0  0
  134.0420  132.9150  149.9290 C   0  0  0  0  0  3  0  0  0  0  0  0
  133.4000  133.7290  150.8640 C   0  0  0  0  0  3  0  0  0  0  0  0
  132.9190  134.9820  150.4870 C   0  0  0  0  0  3  0  0  0  0  0  0
  133.0670  135.4160  149.1710 C   0  0  0  0  0  3  0  0  0  0  0  0
  133.7090  134.6040  148.2350 C   0  0  0  0  0  3  0  0  0  0  0  0
  1  4  1  0  0  0  0
  2  1  1  0  0  0  0
  2 16  1  0  0  0  0
  3  2  2  0  0  0  0
  5  1  1  0  0  0  0
  5  8  1  0  0  0  0
  6 11  1  0  0  0  0
  7  8  1  0  0  0  0
  7  6  2  0  0  0  0
  8  9  2  0  0  0  0
  9 10  1  0  0  0  0
 11 10  2  0  0  0  0
 11 14  1  0  0  0  0
 12 13  1  0  0  0  0
 13  6  1  0  0  0  0
 14 15  1  0  0  0  0
 16 17  1  0  0  0  0
 17 18  1  0  0  0  0
 18 19  1  0  0  0  0
 19 20  1  0  0  0  0
 20 21  1  0  0  0  0
 21 22  1  0  0  0  0
 22 23  1  0  0  0  0
 23 24  2  0  0  0  0
 25 24  1  0  0  0  0
 26 25  2  0  0  0  0
 27 22  2  0  0  0  0
 27 26  1  0  0  0  0
M  END
>  <MODEL>
5

>  <REMARK>
 VINA RESULT:    -6.123     12.347     13.771
 INTER + INTRA:         -11.412
 INTER:                  -9.868
 INTRA:                  -1.545
 UNBOUND:                -1.530
  Name = CHEMBL330301
  12 active torsions:
  status: ('A' for Active; 'I' for Inactive)
    1  A    between atoms: C_1  and  O_2
    2  A    between atoms: O_2  and  C_3
    3  A    between atoms: C_5  and  C_6
    4  A    between atoms: C_6  and  N_7
    5  A    between atoms: C_8  and  C_10
    6  A    between atoms: C_10  and  C_11
    7  A    between atoms: C_11  and  C_12
    8  A    between atoms: C_12  and  C_13
    9  A    between atoms: C_13  and  C_14
   10  A    between atoms: C_14  and  C_15
   11  A    between atoms: C_15  and  C_16
   12  A    between atoms: C_24  and  O_25
                            x       y       z     vdW  Elec       q    Type
                         _______ _______ _______ _____ _____    ______ ____

>  <TORSDO>
F 11

>  <SCORE>
-6.123

>  <RMSD_LB>
12.347

>  <RMSD_UB>
13.771

$$$$
CHEMBL330301
 OpenBabel10172500053D

 27 28  0  0  0  0  0  0  0  0999 V2000
  145.2650  136.2310  150.6680 N   0  0  0  0  0  0  0  0  0  0  0  0
  146.3330  136.7150  151.3880 C   0  0  0  0  0  0  0  0  0  0  0  0
  147.4610  136.8340  150.9230 O   0  0  0  0  0  0  0  0  0  0  0  0
  144.3760  136.1960  151.0910 H   0  0  0  0  0  0  0  0  0  0  0  0
  145.4180  135.7740  149.3060 C   0  0  0  0  0  2  0  0  0  0  0  0
  144.0740  138.7360  147.2990 C   0  0  0  0  0  0  0  0  0  0  0  0
  144.8490  137.9610  148.1690 C   0  0  0  0  0  3  0  0  0  0  0  0
  144.5990  136.5840  148.3310 C   0  0  0  0  0  0  0  0  0  0  0  0
  143.5810  135.9830  147.5800 C   0  0  0  0  0  3  0  0  0  0  0  0
  142.8040  136.7460  146.7080 C   0  0  0  0  0  3  0  0  0  0  0  0
  143.0480  138.1120  146.5760 C   0  0  0  0  0  0  0  0  0  0  0  0
  145.2920  140.4960  146.2470 C   0  0  0  0  0  1  0  0  0  0  0  0
  144.2280  140.0810  147.0930 O   0  0  0  0  0  0  0  0  0  0  0  0
  142.2760  138.8600  145.7270 O   0  0  0  0  0  0  0  0  0  0  0  0
  141.9320  138.4750  144.9440 H   0  0  0  0  0  0  0  0  0  0  0  0
  145.9680  137.1610  152.7930 C   0  0  0  0  0  2  0  0  0  0  0  0
  145.5770  138.6360  152.8130 C   0  0  0  0  0  2  0  0  0  0  0  0
  144.6300  138.9880  151.6680 C   0  0  0  0  0  2  0  0  0  0  0  0
  144.2590  140.4720  151.6980 C   0  0  0  0  0  2  0  0  0  0  0  0
  144.9100  141.2300  150.5400 C   0  0  0  0  0  2  0  0  0  0  0  0
  145.5780  142.5170  151.0250 C   0  0  0  0  0  2  0  0  0  0  0  0
  146.7230  142.2420  151.9660 C   0  0  0  0  0  0  0  0  0  0  0  0
  148.0180  142.0300  151.4720 C   0  0  0  0  0  3  0  0  0  0  0  0
  149.0780  141.7940  152.3480 C   0  0  0  0  0  3  0  0  0  0  0  0
  148.8540  141.7580  153.7240 C   0  0  0  0  0  3  0  0  0  0  0  0
  147.5670  141.9470  154.2230 C   0  0  0  0  0  3  0  0  0  0  0  0
  146.5060  142.1830  153.3490 C   0  0  0  0  0  3  0  0  0  0  0  0
  1  4  1  0  0  0  0
  1  2  1  0  0  0  0
  2 16  1  0  0  0  0
  3  2  2  0  0  0  0
  5  1  1  0  0  0  0
  6  7  1  0  0  0  0
  7  8  2  0  0  0  0
  8  5  1  0  0  0  0
  9  8  1  0  0  0  0
 10  9  2  0  0  0  0
 11 10  1  0  0  0  0
 11  6  2  0  0  0  0
 12 13  1  0  0  0  0
 13  6  1  0  0  0  0
 14 11  1  0  0  0  0
 15 14  1  0  0  0  0
 16 17  1  0  0  0  0
 18 19  1  0  0  0  0
 18 17  1  0  0  0  0
 20 21  1  0  0  0  0
 20 19  1  0  0  0  0
 21 22  1  0  0  0  0
 22 27  1  0  0  0  0
 23 22  2  0  0  0  0
 23 24  1  0  0  0  0
 24 25  2  0  0  0  0
 25 26  1  0  0  0  0
 27 26  2  0  0  0  0
M  END
>  <MODEL>
6

>  <REMARK>
 VINA RESULT:    -6.028      4.192      5.665
 INTER + INTRA:         -11.259
 INTER:                  -9.994
 INTRA:                  -1.265
 UNBOUND:                -1.530
  Name = CHEMBL330301
  12 active torsions:
  status: ('A' for Active; 'I' for Inactive)
    1  A    between atoms: C_1  and  O_2
    2  A    between atoms: O_2  and  C_3
    3  A    between atoms: C_5  and  C_6
    4  A    between atoms: C_6  and  N_7
    5  A    between atoms: C_8  and  C_10
    6  A    between atoms: C_10  and  C_11
    7  A    between atoms: C_11  and  C_12
    8  A    between atoms: C_12  and  C_13
    9  A    between atoms: C_13  and  C_14
   10  A    between atoms: C_14  and  C_15
   11  A    between atoms: C_15  and  C_16
   12  A    between atoms: C_24  and  O_25
                            x       y       z     vdW  Elec       q    Type
                         _______ _______ _______ _____ _____    ______ ____

>  <TORSDO>
F 11

>  <SCORE>
-6.028

>  <RMSD_LB>
4.192

>  <RMSD_UB>
5.665

$$$$
CHEMBL330301
 OpenBabel10172500053D

 27 28  0  0  0  0  0  0  0  0999 V2000
  135.4560  135.8940  149.0840 N   0  0  0  0  0  0  0  0  0  0  0  0
  134.4840  135.4420  148.2220 C   0  0  0  0  0  0  0  0  0  0  0  0
  134.1190  134.2730  148.1700 O   0  0  0  0  0  0  0  0  0  0  0  0
  135.6770  136.8530  149.1010 H   0  0  0  0  0  0  0  0  0  0  0  0
  136.1610  134.9920  149.9670 C   0  0  0  0  0  2  0  0  0  0  0  0
  135.3520  135.7520  153.6250 C   0  0  0  0  0  0  0  0  0  0  0  0
  135.8990  135.8320  152.3380 C   0  0  0  0  0  3  0  0  0  0  0  0
  135.5290  134.9150  151.3350 C   0  0  0  0  0  0  0  0  0  0  0  0
  134.5730  133.9340  151.6270 C   0  0  0  0  0  3  0  0  0  0  0  0
  134.0200  133.8460  152.9050 C   0  0  0  0  0  3  0  0  0  0  0  0
  134.4140  134.7470  153.8940 C   0  0  0  0  0  0  0  0  0  0  0  0
  136.8170  136.2620  155.4360 C   0  0  0  0  0  1  0  0  0  0  0  0
  135.6660  136.5830  154.6670 O   0  0  0  0  0  0  0  0  0  0  0  0
  133.8770  134.6510  155.1510 O   0  0  0  0  0  0  0  0  0  0  0  0
  133.4520  133.8600  155.4200 H   0  0  0  0  0  0  0  0  0  0  0  0
  133.8490  136.5430  147.3890 C   0  0  0  0  0  2  0  0  0  0  0  0
  134.9160  137.4070  146.7240 C   0  0  0  0  0  2  0  0  0  0  0  0
  134.4350  137.9790  145.3920 C   0  0  0  0  0  2  0  0  0  0  0  0
  134.5720  136.9500  144.2680 C   0  0  0  0  0  2  0  0  0  0  0  0
  135.7770  136.0360  144.4980 C   0  0  0  0  0  2  0  0  0  0  0  0
  135.3550  134.5670  144.5570 C   0  0  0  0  0  2  0  0  0  0  0  0
  136.2050  133.6970  143.6660 C   0  0  0  0  0  0  0  0  0  0  0  0
  136.7450  134.2050  142.4770 C   0  0  0  0  0  3  0  0  0  0  0  0
  137.5470  133.4010  141.6650 C   0  0  0  0  0  3  0  0  0  0  0  0
  137.8070  132.0800  142.0280 C   0  0  0  0  0  3  0  0  0  0  0  0
  137.2560  131.5590  143.1970 C   0  0  0  0  0  3  0  0  0  0  0  0
  136.4560  132.3620  144.0100 C   0  0  0  0  0  3  0  0  0  0  0  0
  1  4  1  0  0  0  0
  1  5  1  0  0  0  0
  2  1  1  0  0  0  0
  3  2  2  0  0  0  0
  5  8  1  0  0  0  0
  6 11  1  0  0  0  0
  6 13  1  0  0  0  0
  7  6  2  0  0  0  0
  8  9  2  0  0  0  0
  8  7  1  0  0  0  0
  9 10  1  0  0  0  0
 10 11  2  0  0  0  0
 11 14  1  0  0  0  0
 13 12  1  0  0  0  0
 14 15  1  0  0  0  0
 16  2  1  0  0  0  0
 17 16  1  0  0  0  0
 18 17  1  0  0  0  0
 19 20  1  0  0  0  0
 19 18  1  0  0  0  0
 20 21  1  0  0  0  0
 22 27  1  0  0  0  0
 22 21  1  0  0  0  0
 23 22  2  0  0  0  0
 24 25  2  0  0  0  0
 24 23  1  0  0  0  0
 25 26  1  0  0  0  0
 26 27  2  0  0  0  0
M  END
>  <MODEL>
7

>  <REMARK>
 VINA RESULT:    -5.821      9.197     12.338
 INTER + INTRA:         -10.924
 INTER:                  -9.978
 INTRA:                  -0.946
 UNBOUND:                -1.530
  Name = CHEMBL330301
  12 active torsions:
  status: ('A' for Active; 'I' for Inactive)
    1  A    between atoms: C_1  and  O_2
    2  A    between atoms: O_2  and  C_3
    3  A    between atoms: C_5  and  C_6
    4  A    between atoms: C_6  and  N_7
    5  A    between atoms: C_8  and  C_10
    6  A    between atoms: C_10  and  C_11
    7  A    between atoms: C_11  and  C_12
    8  A    between atoms: C_12  and  C_13
    9  A    between atoms: C_13  and  C_14
   10  A    between atoms: C_14  and  C_15
   11  A    between atoms: C_15  and  C_16
   12  A    between atoms: C_24  and  O_25
                            x       y       z     vdW  Elec       q    Type
                         _______ _______ _______ _____ _____    ______ ____

>  <TORSDO>
F 11

>  <SCORE>
-5.821

>  <RMSD_LB>
9.197

>  <RMSD_UB>
12.338

$$$$
CHEMBL330301
 OpenBabel10172500053D

 27 28  0  0  0  0  0  0  0  0999 V2000
  148.9840  139.3070  145.2200 N   0  0  0  0  0  0  0  0  0  0  0  0
  147.6690  138.9040  145.1900 C   0  0  0  0  0  0  0  0  0  0  0  0
  147.2460  138.0410  144.4290 O   0  0  0  0  0  0  0  0  0  0  0  0
  149.2670  139.9790  145.8810 H   0  0  0  0  0  0  0  0  0  0  0  0
  149.9600  138.7670  144.3000 C   0  0  0  0  0  2  0  0  0  0  0  0
  151.4840  135.2640  144.4530 C   0  0  0  0  0  0  0  0  0  0  0  0
  150.9060  136.4440  143.9700 C   0  0  0  0  0  3  0  0  0  0  0  0
  150.6230  137.5200  144.8330 C   0  0  0  0  0  0  0  0  0  0  0  0
  150.9600  137.4130  146.1890 C   0  0  0  0  0  3  0  0  0  0  0  0
  151.5390  136.2430  146.6810 C   0  0  0  0  0  3  0  0  0  0  0  0
  151.7920  135.1780  145.8180 C   0  0  0  0  0  0  0  0  0  0  0  0
  150.7160  133.5850  142.9440 C   0  0  0  0  0  1  0  0  0  0  0  0
  151.7750  134.1620  143.6950 O   0  0  0  0  0  0  0  0  0  0  0  0
  152.3500  134.0270  146.3070 O   0  0  0  0  0  0  0  0  0  0  0  0
  151.9450  133.5770  147.0230 H   0  0  0  0  0  0  0  0  0  0  0  0
  146.8030  139.5730  146.2430 C   0  0  0  0  0  2  0  0  0  0  0  0
  146.7990  138.7670  147.5380 C   0  0  0  0  0  2  0  0  0  0  0  0
  146.9460  139.6640  148.7660 C   0  0  0  0  0  2  0  0  0  0  0  0
  145.9030  140.7840  148.7580 C   0  0  0  0  0  2  0  0  0  0  0  0
  146.4910  142.0920  149.2910 C   0  0  0  0  0  2  0  0  0  0  0  0
  145.8830  142.4610  150.6440 C   0  0  0  0  0  2  0  0  0  0  0  0
  146.8420  142.2190  151.7820 C   0  0  0  0  0  0  0  0  0  0  0  0
  148.2180  142.1010  151.5430 C   0  0  0  0  0  3  0  0  0  0  0  0
  149.1040  141.8950  152.6020 C   0  0  0  0  0  3  0  0  0  0  0  0
  148.6230  141.7960  153.9060 C   0  0  0  0  0  3  0  0  0  0  0  0
  147.2550  141.8900  154.1520 C   0  0  0  0  0  3  0  0  0  0  0  0
  146.3680  142.0960  153.0950 C   0  0  0  0  0  3  0  0  0  0  0  0
  1  4  1  0  0  0  0
  2  1  1  0  0  0  0
  2 16  1  0  0  0  0
  3  2  2  0  0  0  0
  5  8  1  0  0  0  0
  5  1  1  0  0  0  0
  6 11  1  0  0  0  0
  7  6  2  0  0  0  0
  7  8  1  0  0  0  0
  8  9  2  0  0  0  0
  9 10  1  0  0  0  0
 11 14  1  0  0  0  0
 11 10  2  0  0  0  0
 12 13  1  0  0  0  0
 13  6  1  0  0  0  0
 14 15  1  0  0  0  0
 16 17  1  0  0  0  0
 17 18  1  0  0  0  0
 19 18  1  0  0  0  0
 19 20  1  0  0  0  0
 20 21  1  0  0  0  0
 21 22  1  0  0  0  0
 22 27  1  0  0  0  0
 23 22  2  0  0  0  0
 23 24  1  0  0  0  0
 24 25  2  0  0  0  0
 25 26  1  0  0  0  0
 27 26  2  0  0  0  0
M  END
>  <MODEL>
8

>  <REMARK>
 VINA RESULT:    -5.716      6.999     10.319
 INTER + INTRA:         -10.755
 INTER:                  -9.706
 INTRA:                  -1.049
 UNBOUND:                -1.530
  Name = CHEMBL330301
  12 active torsions:
  status: ('A' for Active; 'I' for Inactive)
    1  A    between atoms: C_1  and  O_2
    2  A    between atoms: O_2  and  C_3
    3  A    between atoms: C_5  and  C_6
    4  A    between atoms: C_6  and  N_7
    5  A    between atoms: C_8  and  C_10
    6  A    between atoms: C_10  and  C_11
    7  A    between atoms: C_11  and  C_12
    8  A    between atoms: C_12  and  C_13
    9  A    between atoms: C_13  and  C_14
   10  A    between atoms: C_14  and  C_15
   11  A    between atoms: C_15  and  C_16
   12  A    between atoms: C_24  and  O_25
                            x       y       z     vdW  Elec       q    Type
                         _______ _______ _______ _____ _____    ______ ____

>  <TORSDO>
F 11

>  <SCORE>
-5.716

>  <RMSD_LB>
6.999

>  <RMSD_UB>
10.319

$$$$
CHEMBL330301
 OpenBabel10172500053D

 27 28  0  0  0  0  0  0  0  0999 V2000
  136.5540  139.1250  147.9680 N   0  0  0  0  0  0  0  0  0  0  0  0
  136.6410  138.9780  146.6030 C   0  0  0  0  0  0  0  0  0  0  0  0
  137.3140  139.7110  145.8870 O   0  0  0  0  0  0  0  0  0  0  0  0
  136.0250  138.4780  148.4890 H   0  0  0  0  0  0  0  0  0  0  0  0
  137.2210  140.2080  148.6540 C   0  0  0  0  0  2  0  0  0  0  0  0
  140.0980  138.0030  149.8690 C   0  0  0  0  0  0  0  0  0  0  0  0
  138.9010  138.4220  149.2750 C   0  0  0  0  0  3  0  0  0  0  0  0
  138.5350  139.7810  149.2620 C   0  0  0  0  0  0  0  0  0  0  0  0
  139.4050  140.7270  149.8210 C   0  0  0  0  0  3  0  0  0  0  0  0
  140.6010  140.3210  150.4140 C   0  0  0  0  0  3  0  0  0  0  0  0
  140.9380  138.9680  150.4400 C   0  0  0  0  0  0  0  0  0  0  0  0
  141.0240  136.1060  148.7610 C   0  0  0  0  0  1  0  0  0  0  0  0
  140.5250  136.7040  149.9490 O   0  0  0  0  0  0  0  0  0  0  0  0
  142.1080  138.5730  151.0330 O   0  0  0  0  0  0  0  0  0  0  0  0
  142.1900  137.7040  151.3750 H   0  0  0  0  0  0  0  0  0  0  0  0
  135.8860  137.7720  146.0710 C   0  0  0  0  0  2  0  0  0  0  0  0
  134.7740  138.2020  145.1180 C   0  0  0  0  0  2  0  0  0  0  0  0
  133.4350  138.3510  145.8380 C   0  0  0  0  0  2  0  0  0  0  0  0
  132.5960  137.0780  145.7100 C   0  0  0  0  0  2  0  0  0  0  0  0
  132.6020  136.2770  147.0120 C   0  0  0  0  0  2  0  0  0  0  0  0
  132.8040  137.1880  148.2230 C   0  0  0  0  0  2  0  0  0  0  0  0
  133.4670  136.4690  149.3700 C   0  0  0  0  0  0  0  0  0  0  0  0
  132.7050  135.9570  150.4280 C   0  0  0  0  0  3  0  0  0  0  0  0
  133.3220  135.2760  151.4790 C   0  0  0  0  0  3  0  0  0  0  0  0
  134.7050  135.1090  151.4870 C   0  0  0  0  0  3  0  0  0  0  0  0
  135.4750  135.6330  150.4500 C   0  0  0  0  0  3  0  0  0  0  0  0
  134.8600  136.3140  149.3990 C   0  0  0  0  0  3  0  0  0  0  0  0
  1  4  1  0  0  0  0
  1  5  1  0  0  0  0
  2  1  1  0  0  0  0
  3  2  2  0  0  0  0
  5  8  1  0  0  0  0
  6 13  1  0  0  0  0
  6 11  1  0  0  0  0
  7  6  2  0  0  0  0
  8  7  1  0  0  0  0
  8  9  2  0  0  0  0
  9 10  1  0  0  0  0
 10 11  2  0  0  0  0
 11 14  1  0  0  0  0
 12 13  1  0  0  0  0
 14 15  1  0  0  0  0
 16  2  1  0  0  0  0
 17 18  1  0  0  0  0
 17 16  1  0  0  0  0
 19 18  1  0  0  0  0
 19 20  1  0  0  0  0
 20 21  1  0  0  0  0
 21 22  1  0  0  0  0
 22 27  2  0  0  0  0
 22 23  1  0  0  0  0
 23 24  2  0  0  0  0
 24 25  1  0  0  0  0
 26 25  2  0  0  0  0
 27 26  1  0  0  0  0
M  END
>  <MODEL>
9

>  <REMARK>
 VINA RESULT:    -5.707      5.894     11.605
 INTER + INTRA:         -10.740
 INTER:                  -9.210
 INTRA:                  -1.530
 UNBOUND:                -1.530
  Name = CHEMBL330301
  12 active torsions:
  status: ('A' for Active; 'I' for Inactive)
    1  A    between atoms: C_1  and  O_2
    2  A    between atoms: O_2  and  C_3
    3  A    between atoms: C_5  and  C_6
    4  A    between atoms: C_6  and  N_7
    5  A    between atoms: C_8  and  C_10
    6  A    between atoms: C_10  and  C_11
    7  A    between atoms: C_11  and  C_12
    8  A    between atoms: C_12  and  C_13
    9  A    between atoms: C_13  and  C_14
   10  A    between atoms: C_14  and  C_15
   11  A    between atoms: C_15  and  C_16
   12  A    between atoms: C_24  and  O_25
                            x       y       z     vdW  Elec       q    Type
                         _______ _______ _______ _____ _____    ______ ____

>  <TORSDO>
F 11

>  <SCORE>
-5.707

>  <RMSD_LB>
5.894

>  <RMSD_UB>
11.605

$$$$
