CHEMBL88514
 OpenBabel10162523333D

 25 26  0  0  0  0  0  0  0  0999 V2000
  146.6240  138.3490  150.3570 N   0  0  0  0  0  0  0  0  0  0  0  0
  146.7660  138.3150  148.9890 C   0  0  0  0  0  0  0  0  0  0  0  0
  147.4580  137.4890  148.4020 O   0  0  0  0  0  0  0  0  0  0  0  0
  146.0910  139.0700  150.7640 H   0  0  0  0  0  0  0  0  0  0  0  0
  147.2360  137.3590  151.2140 C   0  0  0  0  0  2  0  0  0  0  0  0
  145.8830  138.6950  154.5220 C   0  0  0  0  0  0  0  0  0  0  0  0
  145.9720  138.3060  153.1820 C   0  0  0  0  0  3  0  0  0  0  0  0
  147.1510  137.7360  152.6690 C   0  0  0  0  0  0  0  0  0  0  0  0
  148.2390  137.5290  153.5300 C   0  0  0  0  0  3  0  0  0  0  0  0
  148.1600  137.9100  154.8700 C   0  0  0  0  0  3  0  0  0  0  0  0
  146.9900  138.4940  155.3570 C   0  0  0  0  0  0  0  0  0  0  0  0
  143.5790  139.2880  154.3480 C   0  0  0  0  0  1  0  0  0  0  0  0
  144.7840  139.2750  155.1020 O   0  0  0  0  0  0  0  0  0  0  0  0
  146.9190  138.8790  156.6690 O   0  0  0  0  0  0  0  0  0  0  0  0
  147.5660  138.5850  157.2790 H   0  0  0  0  0  0  0  0  0  0  0  0
  145.9950  139.4110  148.2740 C   0  0  0  0  0  2  0  0  0  0  0  0
  145.4380  140.4370  149.2610 C   0  0  0  0  0  2  0  0  0  0  0  0
  146.3090  141.6920  149.3340 C   0  0  0  0  0  2  0  0  0  0  0  0
  145.9710  142.5200  150.5770 C   0  0  0  0  0  2  0  0  0  0  0  0
  146.8420  142.1730  151.7600 C   0  0  0  0  0  0  0  0  0  0  0  0
  148.1640  141.7470  151.5720 C   0  0  0  0  0  3  0  0  0  0  0  0
  148.9780  141.4590  152.6680 C   0  0  0  0  0  3  0  0  0  0  0  0
  148.4770  141.5860  153.9630 C   0  0  0  0  0  3  0  0  0  0  0  0
  147.1580  141.9910  154.1610 C   0  0  0  0  0  3  0  0  0  0  0  0
  146.3430  142.2790  153.0650 C   0  0  0  0  0  3  0  0  0  0  0  0
  1  4  1  0  0  0  0
  1  5  1  0  0  0  0
  2  1  1  0  0  0  0
  3  2  2  0  0  0  0
  5  8  1  0  0  0  0
  6 13  1  0  0  0  0
  6 11  1  0  0  0  0
  7  6  2  0  0  0  0
  8  7  1  0  0  0  0
  8  9  2  0  0  0  0
  9 10  1  0  0  0  0
 10 11  2  0  0  0  0
 11 14  1  0  0  0  0
 12 13  1  0  0  0  0
 14 15  1  0  0  0  0
 16  2  1  0  0  0  0
 16 17  1  0  0  0  0
 17 18  1  0  0  0  0
 18 19  1  0  0  0  0
 19 20  1  0  0  0  0
 20 25  1  0  0  0  0
 21 20  2  0  0  0  0
 21 22  1  0  0  0  0
 22 23  2  0  0  0  0
 23 24  1  0  0  0  0
 25 24  2  0  0  0  0
M  END
>  <MODEL>
1

>  <REMARK>
 VINA RESULT:    -7.971      0.000      0.000
 INTER + INTRA:         -12.904
 INTER:                 -10.766
 INTRA:                  -2.138
 UNBOUND:                -0.973
  Name = CHEMBL88514
  10 active torsions:
  status: ('A' for Active; 'I' for Inactive)
    1  A    between atoms: C_1  and  O_2
    2  A    between atoms: O_2  and  C_3
    3  A    between atoms: C_5  and  C_6
    4  A    between atoms: C_6  and  N_7
    5  A    between atoms: C_8  and  C_10
    6  A    between atoms: C_10  and  C_11
    7  A    between atoms: C_11  and  C_12
    8  A    between atoms: C_12  and  C_13
    9  A    between atoms: C_13  and  C_14
   10  A    between atoms: C_22  and  O_23
                            x       y       z     vdW  Elec       q    Type
                         _______ _______ _______ _____ _____    ______ ____

>  <TORSDO>
F 9

>  <SCORE>
-7.971

>  <RMSD_LB>
0.000

>  <RMSD_UB>
0.000

$$$$
CHEMBL88514
 OpenBabel10162523333D

 25 26  0  0  0  0  0  0  0  0999 V2000
  144.8730  139.0400  150.3500 N   0  0  0  0  0  0  0  0  0  0  0  0
  145.9870  138.4670  149.7820 C   0  0  0  0  0  0  0  0  0  0  0  0
  146.2900  137.2870  149.9320 O   0  0  0  0  0  0  0  0  0  0  0  0
  144.7170  140.0050  150.2270 H   0  0  0  0  0  0  0  0  0  0  0  0
  143.9250  138.2690  151.1230 C   0  0  0  0  0  2  0  0  0  0  0  0
  145.0920  139.0640  154.6680 C   0  0  0  0  0  0  0  0  0  0  0  0
  145.0950  138.7160  153.3140 C   0  0  0  0  0  3  0  0  0  0  0  0
  143.9010  138.6830  152.5710 C   0  0  0  0  0  0  0  0  0  0  0  0
  142.6980  139.0380  153.1970 C   0  0  0  0  0  3  0  0  0  0  0  0
  142.6820  139.3910  154.5460 C   0  0  0  0  0  3  0  0  0  0  0  0
  143.8730  139.3970  155.2740 C   0  0  0  0  0  0  0  0  0  0  0  0
  147.1850  138.0970  155.2770 C   0  0  0  0  0  1  0  0  0  0  0  0
  146.2000  139.1040  155.4740 O   0  0  0  0  0  0  0  0  0  0  0  0
  143.8540  139.7310  156.6020 O   0  0  0  0  0  0  0  0  0  0  0  0
  144.0680  140.6030  156.8690 H   0  0  0  0  0  0  0  0  0  0  0  0
  146.8180  139.4410  148.9650 C   0  0  0  0  0  2  0  0  0  0  0  0
  146.0160  140.6900  148.6010 C   0  0  0  0  0  2  0  0  0  0  0  0
  146.7450  141.9740  149.0010 C   0  0  0  0  0  2  0  0  0  0  0  0
  146.0730  142.6300  150.2100 C   0  0  0  0  0  2  0  0  0  0  0  0
  146.8010  142.3480  151.5020 C   0  0  0  0  0  0  0  0  0  0  0  0
  146.1170  142.3650  152.7240 C   0  0  0  0  0  3  0  0  0  0  0  0
  146.7850  142.0720  153.9140 C   0  0  0  0  0  3  0  0  0  0  0  0
  148.1450  141.7670  153.8950 C   0  0  0  0  0  3  0  0  0  0  0  0
  148.8400  141.7660  152.6870 C   0  0  0  0  0  3  0  0  0  0  0  0
  148.1730  142.0590  151.4960 C   0  0  0  0  0  3  0  0  0  0  0  0
  1  5  1  0  0  0  0
  2  3  2  0  0  0  0
  2  1  1  0  0  0  0
  4  1  1  0  0  0  0
  5  8  1  0  0  0  0
  6 11  1  0  0  0  0
  6 13  1  0  0  0  0
  7  6  2  0  0  0  0
  8  9  2  0  0  0  0
  8  7  1  0  0  0  0
  9 10  1  0  0  0  0
 10 11  2  0  0  0  0
 11 14  1  0  0  0  0
 12 13  1  0  0  0  0
 14 15  1  0  0  0  0
 16  2  1  0  0  0  0
 17 16  1  0  0  0  0
 17 18  1  0  0  0  0
 18 19  1  0  0  0  0
 19 20  1  0  0  0  0
 20 21  1  0  0  0  0
 21 22  2  0  0  0  0
 23 22  1  0  0  0  0
 24 23  2  0  0  0  0
 25 20  2  0  0  0  0
 25 24  1  0  0  0  0
M  END
>  <MODEL>
2

>  <REMARK>
 VINA RESULT:    -7.523      1.237      2.665
 INTER + INTRA:         -12.234
 INTER:                 -10.498
 INTRA:                  -1.736
 UNBOUND:                -0.973
  Name = CHEMBL88514
  10 active torsions:
  status: ('A' for Active; 'I' for Inactive)
    1  A    between atoms: C_1  and  O_2
    2  A    between atoms: O_2  and  C_3
    3  A    between atoms: C_5  and  C_6
    4  A    between atoms: C_6  and  N_7
    5  A    between atoms: C_8  and  C_10
    6  A    between atoms: C_10  and  C_11
    7  A    between atoms: C_11  and  C_12
    8  A    between atoms: C_12  and  C_13
    9  A    between atoms: C_13  and  C_14
   10  A    between atoms: C_22  and  O_23
                            x       y       z     vdW  Elec       q    Type
                         _______ _______ _______ _____ _____    ______ ____

>  <TORSDO>
F 9

>  <SCORE>
-7.523

>  <RMSD_LB>
1.237

>  <RMSD_UB>
2.665

$$$$
CHEMBL88514
 OpenBabel10162523333D

 25 26  0  0  0  0  0  0  0  0999 V2000
  143.7640  137.8710  150.4440 N   0  0  0  0  0  0  0  0  0  0  0  0
  144.8900  138.6580  150.5290 C   0  0  0  0  0  0  0  0  0  0  0  0
  145.4990  138.8540  151.5770 O   0  0  0  0  0  0  0  0  0  0  0  0
  143.2980  137.7970  149.5790 H   0  0  0  0  0  0  0  0  0  0  0  0
  143.2450  137.1530  151.5850 C   0  0  0  0  0  2  0  0  0  0  0  0
  140.7730  138.5930  154.1100 C   0  0  0  0  0  0  0  0  0  0  0  0
  141.9160  138.0160  153.5490 C   0  0  0  0  0  3  0  0  0  0  0  0
  142.0190  137.8100  152.1620 C   0  0  0  0  0  0  0  0  0  0  0  0
  140.9670  138.2220  151.3310 C   0  0  0  0  0  3  0  0  0  0  0  0
  139.8220  138.8030  151.8780 C   0  0  0  0  0  3  0  0  0  0  0  0
  139.7280  138.9800  153.2590 C   0  0  0  0  0  0  0  0  0  0  0  0
  140.5400  137.6730  156.2980 C   0  0  0  0  0  1  0  0  0  0  0  0
  140.5770  138.8130  155.4490 O   0  0  0  0  0  0  0  0  0  0  0  0
  138.5990  139.5380  153.7970 O   0  0  0  0  0  0  0  0  0  0  0  0
  138.0570  139.0360  154.3730 H   0  0  0  0  0  0  0  0  0  0  0  0
  145.2970  139.2760  149.2030 C   0  0  0  0  0  2  0  0  0  0  0  0
  146.4550  140.2580  149.3770 C   0  0  0  0  0  2  0  0  0  0  0  0
  145.9640  141.6970  149.5510 C   0  0  0  0  0  2  0  0  0  0  0  0
  147.0640  142.5820  150.1420 C   0  0  0  0  0  2  0  0  0  0  0  0
  147.3380  142.2780  151.5940 C   0  0  0  0  0  0  0  0  0  0  0  0
  148.6340  141.9670  152.0260 C   0  0  0  0  0  3  0  0  0  0  0  0
  148.8910  141.7190  153.3750 C   0  0  0  0  0  3  0  0  0  0  0  0
  147.8530  141.7710  154.3050 C   0  0  0  0  0  3  0  0  0  0  0  0
  146.5570  142.0600  153.8840 C   0  0  0  0  0  3  0  0  0  0  0  0
  146.2990  142.3080  152.5350 C   0  0  0  0  0  3  0  0  0  0  0  0
  1  2  1  0  0  0  0
  1  5  1  0  0  0  0
  2  3  2  0  0  0  0
  4  1  1  0  0  0  0
  5  8  1  0  0  0  0
  6 13  1  0  0  0  0
  7  6  1  0  0  0  0
  8  7  2  0  0  0  0
  9 10  2  0  0  0  0
  9  8  1  0  0  0  0
 10 11  1  0  0  0  0
 11 14  1  0  0  0  0
 11  6  2  0  0  0  0
 13 12  1  0  0  0  0
 14 15  1  0  0  0  0
 16 17  1  0  0  0  0
 16  2  1  0  0  0  0
 17 18  1  0  0  0  0
 18 19  1  0  0  0  0
 19 20  1  0  0  0  0
 20 21  2  0  0  0  0
 20 25  1  0  0  0  0
 21 22  1  0  0  0  0
 22 23  2  0  0  0  0
 24 23  1  0  0  0  0
 25 24  2  0  0  0  0
M  END
>  <MODEL>
3

>  <REMARK>
 VINA RESULT:    -7.450      2.909      4.319
 INTER + INTRA:         -12.126
 INTER:                 -11.066
 INTRA:                  -1.059
 UNBOUND:                -0.973
  Name = CHEMBL88514
  10 active torsions:
  status: ('A' for Active; 'I' for Inactive)
    1  A    between atoms: C_1  and  O_2
    2  A    between atoms: O_2  and  C_3
    3  A    between atoms: C_5  and  C_6
    4  A    between atoms: C_6  and  N_7
    5  A    between atoms: C_8  and  C_10
    6  A    between atoms: C_10  and  C_11
    7  A    between atoms: C_11  and  C_12
    8  A    between atoms: C_12  and  C_13
    9  A    between atoms: C_13  and  C_14
   10  A    between atoms: C_22  and  O_23
                            x       y       z     vdW  Elec       q    Type
                         _______ _______ _______ _____ _____    ______ ____

>  <TORSDO>
F 9

>  <SCORE>
-7.450

>  <RMSD_LB>
2.909

>  <RMSD_UB>
4.319

$$$$
CHEMBL88514
 OpenBabel10162523333D

 25 26  0  0  0  0  0  0  0  0999 V2000
  143.6940  137.7370  150.0910 N   0  0  0  0  0  0  0  0  0  0  0  0
  144.7290  138.6110  150.3330 C   0  0  0  0  0  0  0  0  0  0  0  0
  145.2630  138.7380  151.4310 O   0  0  0  0  0  0  0  0  0  0  0  0
  143.2810  137.7210  149.1970 H   0  0  0  0  0  0  0  0  0  0  0  0
  143.1950  136.8410  151.1100 C   0  0  0  0  0  2  0  0  0  0  0  0
  139.5780  137.9360  151.6390 C   0  0  0  0  0  0  0  0  0  0  0  0
  140.7390  137.4180  151.0570 C   0  0  0  0  0  3  0  0  0  0  0  0
  141.9490  137.3700  151.7710 C   0  0  0  0  0  0  0  0  0  0  0  0
  141.9760  137.8210  153.0990 C   0  0  0  0  0  3  0  0  0  0  0  0
  140.8240  138.3360  153.6920 C   0  0  0  0  0  3  0  0  0  0  0  0
  139.6360  138.3970  152.9620 C   0  0  0  0  0  0  0  0  0  0  0  0
  138.3050  138.8230  149.8280 C   0  0  0  0  0  1  0  0  0  0  0  0
  138.3620  138.0410  151.0140 O   0  0  0  0  0  0  0  0  0  0  0  0
  138.5090  138.9150  153.5400 O   0  0  0  0  0  0  0  0  0  0  0  0
  137.7160  138.4150  153.5540 H   0  0  0  0  0  0  0  0  0  0  0  0
  145.1360  139.4170  149.1120 C   0  0  0  0  0  2  0  0  0  0  0  0
  146.3540  140.2930  149.4020 C   0  0  0  0  0  2  0  0  0  0  0  0
  145.9730  141.7660  149.5690 C   0  0  0  0  0  2  0  0  0  0  0  0
  147.1530  142.5770  150.1110 C   0  0  0  0  0  2  0  0  0  0  0  0
  147.4470  142.2770  151.5600 C   0  0  0  0  0  0  0  0  0  0  0  0
  148.7550  141.9980  151.9800 C   0  0  0  0  0  3  0  0  0  0  0  0
  149.0300  141.7540  153.3260 C   0  0  0  0  0  3  0  0  0  0  0  0
  148.0000  141.7770  154.2650 C   0  0  0  0  0  3  0  0  0  0  0  0
  146.6920  142.0330  153.8560 C   0  0  0  0  0  3  0  0  0  0  0  0
  146.4160  142.2780  152.5100 C   0  0  0  0  0  3  0  0  0  0  0  0
  1  2  1  0  0  0  0
  1  5  1  0  0  0  0
  2  3  2  0  0  0  0
  4  1  1  0  0  0  0
  5  8  1  0  0  0  0
  6 11  1  0  0  0  0
  7  6  2  0  0  0  0
  7  8  1  0  0  0  0
  8  9  2  0  0  0  0
  9 10  1  0  0  0  0
 11 14  1  0  0  0  0
 11 10  2  0  0  0  0
 12 13  1  0  0  0  0
 13  6  1  0  0  0  0
 14 15  1  0  0  0  0
 16 17  1  0  0  0  0
 16  2  1  0  0  0  0
 17 18  1  0  0  0  0
 18 19  1  0  0  0  0
 19 20  1  0  0  0  0
 20 21  2  0  0  0  0
 20 25  1  0  0  0  0
 21 22  1  0  0  0  0
 22 23  2  0  0  0  0
 24 23  1  0  0  0  0
 25 24  2  0  0  0  0
M  END
>  <MODEL>
4

>  <REMARK>
 VINA RESULT:    -7.260      3.566      4.692
 INTER + INTRA:         -11.841
 INTER:                 -10.882
 INTRA:                  -0.959
 UNBOUND:                -0.973
  Name = CHEMBL88514
  10 active torsions:
  status: ('A' for Active; 'I' for Inactive)
    1  A    between atoms: C_1  and  O_2
    2  A    between atoms: O_2  and  C_3
    3  A    between atoms: C_5  and  C_6
    4  A    between atoms: C_6  and  N_7
    5  A    between atoms: C_8  and  C_10
    6  A    between atoms: C_10  and  C_11
    7  A    between atoms: C_11  and  C_12
    8  A    between atoms: C_12  and  C_13
    9  A    between atoms: C_13  and  C_14
   10  A    between atoms: C_22  and  O_23
                            x       y       z     vdW  Elec       q    Type
                         _______ _______ _______ _____ _____    ______ ____

>  <TORSDO>
F 9

>  <SCORE>
-7.260

>  <RMSD_LB>
3.566

>  <RMSD_UB>
4.692

$$$$
CHEMBL88514
 OpenBabel10162523333D

 25 26  0  0  0  0  0  0  0  0999 V2000
  145.1710  141.0320  149.7770 N   0  0  0  0  0  0  0  0  0  0  0  0
  144.0070  140.3030  149.6850 C   0  0  0  0  0  0  0  0  0  0  0  0
  143.0790  140.4100  150.4810 O   0  0  0  0  0  0  0  0  0  0  0  0
  145.8940  140.8600  149.1310 H   0  0  0  0  0  0  0  0  0  0  0  0
  145.3630  142.0400  150.7940 C   0  0  0  0  0  2  0  0  0  0  0  0
  147.7450  139.8570  152.8230 C   0  0  0  0  0  0  0  0  0  0  0  0
  146.9360  140.3360  151.7880 C   0  0  0  0  0  3  0  0  0  0  0  0
  146.2580  141.5620  151.9070 C   0  0  0  0  0  0  0  0  0  0  0  0
  146.4270  142.3250  153.0710 C   0  0  0  0  0  3  0  0  0  0  0  0
  147.2350  141.8590  154.1090 C   0  0  0  0  0  3  0  0  0  0  0  0
  147.8830  140.6300  153.9830 C   0  0  0  0  0  0  0  0  0  0  0  0
  147.6530  137.4740  152.7890 C   0  0  0  0  0  1  0  0  0  0  0  0
  148.4260  138.6660  152.8040 O   0  0  0  0  0  0  0  0  0  0  0  0
  148.6650  140.1670  155.0080 O   0  0  0  0  0  0  0  0  0  0  0  0
  149.4880  139.7590  154.8220 H   0  0  0  0  0  0  0  0  0  0  0  0
  143.9890  139.3390  148.5120 C   0  0  0  0  0  2  0  0  0  0  0  0
  145.0240  138.2280  148.6850 C   0  0  0  0  0  2  0  0  0  0  0  0
  144.3800  136.9060  149.1050 C   0  0  0  0  0  2  0  0  0  0  0  0
  144.5450  136.6710  150.6090 C   0  0  0  0  0  2  0  0  0  0  0  0
  143.3170  137.0590  151.3960 C   0  0  0  0  0  0  0  0  0  0  0  0
  143.4260  137.4680  152.7310 C   0  0  0  0  0  3  0  0  0  0  0  0
  142.2930  137.8590  153.4460 C   0  0  0  0  0  3  0  0  0  0  0  0
  141.0390  137.8360  152.8370 C   0  0  0  0  0  3  0  0  0  0  0  0
  140.9170  137.4130  151.5150 C   0  0  0  0  0  3  0  0  0  0  0  0
  142.0500  137.0220  150.7990 C   0  0  0  0  0  3  0  0  0  0  0  0
  1  5  1  0  0  0  0
  2  1  1  0  0  0  0
  2  3  2  0  0  0  0
  4  1  1  0  0  0  0
  5  8  1  0  0  0  0
  6 11  1  0  0  0  0
  7  8  1  0  0  0  0
  7  6  2  0  0  0  0
  8  9  2  0  0  0  0
  9 10  1  0  0  0  0
 11 10  2  0  0  0  0
 11 14  1  0  0  0  0
 12 13  1  0  0  0  0
 13  6  1  0  0  0  0
 15 14  1  0  0  0  0
 16 17  1  0  0  0  0
 16  2  1  0  0  0  0
 17 18  1  0  0  0  0
 18 19  1  0  0  0  0
 19 20  1  0  0  0  0
 20 21  1  0  0  0  0
 21 22  2  0  0  0  0
 23 22  1  0  0  0  0
 24 23  2  0  0  0  0
 25 20  2  0  0  0  0
 25 24  1  0  0  0  0
M  END
>  <MODEL>
5

>  <REMARK>
 VINA RESULT:    -7.163      2.692      5.149
 INTER + INTRA:         -11.696
 INTER:                 -10.094
 INTRA:                  -1.602
 UNBOUND:                -0.973
  Name = CHEMBL88514
  10 active torsions:
  status: ('A' for Active; 'I' for Inactive)
    1  A    between atoms: C_1  and  O_2
    2  A    between atoms: O_2  and  C_3
    3  A    between atoms: C_5  and  C_6
    4  A    between atoms: C_6  and  N_7
    5  A    between atoms: C_8  and  C_10
    6  A    between atoms: C_10  and  C_11
    7  A    between atoms: C_11  and  C_12
    8  A    between atoms: C_12  and  C_13
    9  A    between atoms: C_13  and  C_14
   10  A    between atoms: C_22  and  O_23
                            x       y       z     vdW  Elec       q    Type
                         _______ _______ _______ _____ _____    ______ ____

>  <TORSDO>
F 9

>  <SCORE>
-7.163

>  <RMSD_LB>
2.692

>  <RMSD_UB>
5.149

$$$$
CHEMBL88514
 OpenBabel10162523333D

 25 26  0  0  0  0  0  0  0  0999 V2000
  144.0250  138.3980  152.1020 N   0  0  0  0  0  0  0  0  0  0  0  0
  143.7710  138.2220  150.7620 C   0  0  0  0  0  0  0  0  0  0  0  0
  144.0620  137.1990  150.1480 O   0  0  0  0  0  0  0  0  0  0  0  0
  143.8090  139.2630  152.5200 H   0  0  0  0  0  0  0  0  0  0  0  0
  144.6010  137.3510  152.9160 C   0  0  0  0  0  2  0  0  0  0  0  0
  147.8820  138.1320  154.7000 C   0  0  0  0  0  0  0  0  0  0  0  0
  146.5260  137.8940  154.4530 C   0  0  0  0  0  3  0  0  0  0  0  0
  146.0700  137.5660  153.1640 C   0  0  0  0  0  0  0  0  0  0  0  0
  147.0000  137.4460  152.1220 C   0  0  0  0  0  3  0  0  0  0  0  0
  148.3560  137.6770  152.3560 C   0  0  0  0  0  3  0  0  0  0  0  0
  148.7890  138.0230  153.6370 C   0  0  0  0  0  0  0  0  0  0  0  0
  148.5050  137.4540  156.9000 C   0  0  0  0  0  1  0  0  0  0  0  0
  148.4130  138.4770  155.9160 O   0  0  0  0  0  0  0  0  0  0  0  0
  150.1180  138.2620  153.8630 O   0  0  0  0  0  0  0  0  0  0  0  0
  150.5190  139.0370  153.5210 H   0  0  0  0  0  0  0  0  0  0  0  0
  143.1120  139.4240  150.1090 C   0  0  0  0  0  2  0  0  0  0  0  0
  143.6730  140.7350  150.6570 C   0  0  0  0  0  2  0  0  0  0  0  0
  145.0650  141.0400  150.0990 C   0  0  0  0  0  2  0  0  0  0  0  0
  145.6150  142.3440  150.6840 C   0  0  0  0  0  2  0  0  0  0  0  0
  146.6610  142.1090  151.7460 C   0  0  0  0  0  0  0  0  0  0  0  0
  148.0120  141.9730  151.3980 C   0  0  0  0  0  3  0  0  0  0  0  0
  148.9820  141.7890  152.3850 C   0  0  0  0  0  3  0  0  0  0  0  0
  148.6110  141.7300  153.7270 C   0  0  0  0  0  3  0  0  0  0  0  0
  147.2680  141.8450  154.0830 C   0  0  0  0  0  3  0  0  0  0  0  0
  146.2970  142.0280  153.0970 C   0  0  0  0  0  3  0  0  0  0  0  0
  1  4  1  0  0  0  0
  1  5  1  0  0  0  0
  2  1  1  0  0  0  0
  3  2  2  0  0  0  0
  5  8  1  0  0  0  0
  6 13  1  0  0  0  0
  7  6  1  0  0  0  0
  8  7  2  0  0  0  0
  9 10  2  0  0  0  0
  9  8  1  0  0  0  0
 10 11  1  0  0  0  0
 11 14  1  0  0  0  0
 11  6  2  0  0  0  0
 13 12  1  0  0  0  0
 15 14  1  0  0  0  0
 16 17  1  0  0  0  0
 16  2  1  0  0  0  0
 18 17  1  0  0  0  0
 18 19  1  0  0  0  0
 19 20  1  0  0  0  0
 20 25  1  0  0  0  0
 21 20  2  0  0  0  0
 21 22  1  0  0  0  0
 22 23  2  0  0  0  0
 23 24  1  0  0  0  0
 25 24  2  0  0  0  0
M  END
>  <MODEL>
6

>  <REMARK>
 VINA RESULT:    -7.088      1.883      2.620
 INTER + INTRA:         -11.583
 INTER:                  -9.786
 INTRA:                  -1.798
 UNBOUND:                -0.973
  Name = CHEMBL88514
  10 active torsions:
  status: ('A' for Active; 'I' for Inactive)
    1  A    between atoms: C_1  and  O_2
    2  A    between atoms: O_2  and  C_3
    3  A    between atoms: C_5  and  C_6
    4  A    between atoms: C_6  and  N_7
    5  A    between atoms: C_8  and  C_10
    6  A    between atoms: C_10  and  C_11
    7  A    between atoms: C_11  and  C_12
    8  A    between atoms: C_12  and  C_13
    9  A    between atoms: C_13  and  C_14
   10  A    between atoms: C_22  and  O_23
                            x       y       z     vdW  Elec       q    Type
                         _______ _______ _______ _____ _____    ______ ____

>  <TORSDO>
F 9

>  <SCORE>
-7.088

>  <RMSD_LB>
1.883

>  <RMSD_UB>
2.620

$$$$
CHEMBL88514
 OpenBabel10162523333D

 25 26  0  0  0  0  0  0  0  0999 V2000
  135.9090  135.3570  153.3940 N   0  0  0  0  0  0  0  0  0  0  0  0
  135.0450  135.7330  154.3950 C   0  0  0  0  0  0  0  0  0  0  0  0
  134.2110  136.6250  154.2680 O   0  0  0  0  0  0  0  0  0  0  0  0
  136.5860  134.6660  153.5810 H   0  0  0  0  0  0  0  0  0  0  0  0
  135.8560  135.9470  152.0750 C   0  0  0  0  0  2  0  0  0  0  0  0
  133.5100  135.1810  149.1640 C   0  0  0  0  0  0  0  0  0  0  0  0
  134.4080  135.8380  150.0110 C   0  0  0  0  0  3  0  0  0  0  0  0
  134.9190  135.2050  151.1580 C   0  0  0  0  0  0  0  0  0  0  0  0
  134.5440  133.8820  151.4310 C   0  0  0  0  0  3  0  0  0  0  0  0
  133.6530  133.2140  150.5910 C   0  0  0  0  0  3  0  0  0  0  0  0
  133.1380  133.8640  149.4700 C   0  0  0  0  0  0  0  0  0  0  0  0
  132.7360  137.1310  148.0300 C   0  0  0  0  0  1  0  0  0  0  0  0
  132.9460  135.7250  148.0390 O   0  0  0  0  0  0  0  0  0  0  0  0
  132.2530  133.2120  148.6530 O   0  0  0  0  0  0  0  0  0  0  0  0
  131.4110  133.5860  148.4810 H   0  0  0  0  0  0  0  0  0  0  0  0
  135.2340  134.9490  155.6820 C   0  0  0  0  0  2  0  0  0  0  0  0
  135.8800  135.8080  156.7690 C   0  0  0  0  0  2  0  0  0  0  0  0
  137.4080  135.7780  156.6890 C   0  0  0  0  0  2  0  0  0  0  0  0
  137.9910  137.1840  156.8460 C   0  0  0  0  0  2  0  0  0  0  0  0
  138.8360  137.5990  155.6660 C   0  0  0  0  0  0  0  0  0  0  0  0
  138.2540  137.7920  154.4060 C   0  0  0  0  0  3  0  0  0  0  0  0
  139.0320  138.2080  153.3240 C   0  0  0  0  0  3  0  0  0  0  0  0
  140.3990  138.4260  153.4890 C   0  0  0  0  0  3  0  0  0  0  0  0
  140.9910  138.2180  154.7330 C   0  0  0  0  0  3  0  0  0  0  0  0
  140.2140  137.8020  155.8160 C   0  0  0  0  0  3  0  0  0  0  0  0
  1  4  1  0  0  0  0
  1  2  1  0  0  0  0
  2 16  1  0  0  0  0
  3  2  2  0  0  0  0
  5  1  1  0  0  0  0
  6 11  2  0  0  0  0
  6  7  1  0  0  0  0
  7  8  2  0  0  0  0
  8  9  1  0  0  0  0
  8  5  1  0  0  0  0
 10  9  2  0  0  0  0
 11 10  1  0  0  0  0
 12 13  1  0  0  0  0
 13  6  1  0  0  0  0
 14 11  1  0  0  0  0
 15 14  1  0  0  0  0
 16 17  1  0  0  0  0
 18 17  1  0  0  0  0
 18 19  1  0  0  0  0
 20 25  1  0  0  0  0
 20 19  1  0  0  0  0
 21 20  2  0  0  0  0
 22 23  2  0  0  0  0
 22 21  1  0  0  0  0
 23 24  1  0  0  0  0
 24 25  2  0  0  0  0
M  END
>  <MODEL>
7

>  <REMARK>
 VINA RESULT:    -6.894      9.754     12.712
 INTER + INTRA:         -11.293
 INTER:                 -10.344
 INTRA:                  -0.949
 UNBOUND:                -0.973
  Name = CHEMBL88514
  10 active torsions:
  status: ('A' for Active; 'I' for Inactive)
    1  A    between atoms: C_1  and  O_2
    2  A    between atoms: O_2  and  C_3
    3  A    between atoms: C_5  and  C_6
    4  A    between atoms: C_6  and  N_7
    5  A    between atoms: C_8  and  C_10
    6  A    between atoms: C_10  and  C_11
    7  A    between atoms: C_11  and  C_12
    8  A    between atoms: C_12  and  C_13
    9  A    between atoms: C_13  and  C_14
   10  A    between atoms: C_22  and  O_23
                            x       y       z     vdW  Elec       q    Type
                         _______ _______ _______ _____ _____    ______ ____

>  <TORSDO>
F 9

>  <SCORE>
-6.894

>  <RMSD_LB>
9.754

>  <RMSD_UB>
12.712

$$$$
CHEMBL88514
 OpenBabel10162523333D

 25 26  0  0  0  0  0  0  0  0999 V2000
  136.2260  135.8850  153.0000 N   0  0  0  0  0  0  0  0  0  0  0  0
  135.4190  135.7990  151.8880 C   0  0  0  0  0  0  0  0  0  0  0  0
  134.3480  135.2010  151.8770 O   0  0  0  0  0  0  0  0  0  0  0  0
  137.0960  136.3410  152.9240 H   0  0  0  0  0  0  0  0  0  0  0  0
  135.8350  135.3260  154.2740 C   0  0  0  0  0  2  0  0  0  0  0  0
  136.6270  136.4140  157.8440 C   0  0  0  0  0  0  0  0  0  0  0  0
  136.1460  135.6860  156.7520 C   0  0  0  0  0  3  0  0  0  0  0  0
  136.3940  136.1070  155.4340 C   0  0  0  0  0  0  0  0  0  0  0  0
  137.1640  137.2600  155.2190 C   0  0  0  0  0  3  0  0  0  0  0  0
  137.6530  137.9930  156.3010 C   0  0  0  0  0  3  0  0  0  0  0  0
  137.3790  137.5720  157.6030 C   0  0  0  0  0  0  0  0  0  0  0  0
  135.1510  136.4170  159.7180 C   0  0  0  0  0  1  0  0  0  0  0  0
  136.4180  136.0920  159.1610 O   0  0  0  0  0  0  0  0  0  0  0  0
  137.8480  138.3000  158.6640 O   0  0  0  0  0  0  0  0  0  0  0  0
  137.2740  138.8810  159.1240 H   0  0  0  0  0  0  0  0  0  0  0  0
  135.9920  136.5010  150.6700 C   0  0  0  0  0  2  0  0  0  0  0  0
  137.4650  136.1490  150.4630 C   0  0  0  0  0  2  0  0  0  0  0  0
  138.3430  137.3970  150.3600 C   0  0  0  0  0  2  0  0  0  0  0  0
  139.8270  137.0200  150.3230 C   0  0  0  0  0  2  0  0  0  0  0  0
  140.5600  137.4220  151.5790 C   0  0  0  0  0  0  0  0  0  0  0  0
  139.8570  137.9030  152.6910 C   0  0  0  0  0  3  0  0  0  0  0  0
  140.5340  138.2420  153.8640 C   0  0  0  0  0  3  0  0  0  0  0  0
  141.9200  138.1110  153.9330 C   0  0  0  0  0  3  0  0  0  0  0  0
  142.6310  137.6520  152.8260 C   0  0  0  0  0  3  0  0  0  0  0  0
  141.9550  137.3130  151.6530 C   0  0  0  0  0  3  0  0  0  0  0  0
  1  5  1  0  0  0  0
  2  1  1  0  0  0  0
  3  2  2  0  0  0  0
  4  1  1  0  0  0  0
  5  8  1  0  0  0  0
  6 13  1  0  0  0  0
  7  6  2  0  0  0  0
  8  7  1  0  0  0  0
  9  8  2  0  0  0  0
  9 10  1  0  0  0  0
 10 11  2  0  0  0  0
 11  6  1  0  0  0  0
 11 14  1  0  0  0  0
 13 12  1  0  0  0  0
 14 15  1  0  0  0  0
 16  2  1  0  0  0  0
 17 16  1  0  0  0  0
 18 17  1  0  0  0  0
 19 18  1  0  0  0  0
 19 20  1  0  0  0  0
 20 25  2  0  0  0  0
 20 21  1  0  0  0  0
 21 22  2  0  0  0  0
 22 23  1  0  0  0  0
 24 23  2  0  0  0  0
 25 24  1  0  0  0  0
M  END
>  <MODEL>
8

>  <REMARK>
 VINA RESULT:    -6.853      7.591      9.978
 INTER + INTRA:         -11.232
 INTER:                  -9.984
 INTRA:                  -1.248
 UNBOUND:                -0.973
  Name = CHEMBL88514
  10 active torsions:
  status: ('A' for Active; 'I' for Inactive)
    1  A    between atoms: C_1  and  O_2
    2  A    between atoms: O_2  and  C_3
    3  A    between atoms: C_5  and  C_6
    4  A    between atoms: C_6  and  N_7
    5  A    between atoms: C_8  and  C_10
    6  A    between atoms: C_10  and  C_11
    7  A    between atoms: C_11  and  C_12
    8  A    between atoms: C_12  and  C_13
    9  A    between atoms: C_13  and  C_14
   10  A    between atoms: C_22  and  O_23
                            x       y       z     vdW  Elec       q    Type
                         _______ _______ _______ _____ _____    ______ ____

>  <TORSDO>
F 9

>  <SCORE>
-6.853

>  <RMSD_LB>
7.591

>  <RMSD_UB>
9.978

$$$$
CHEMBL88514
 OpenBabel10162523333D

 25 26  0  0  0  0  0  0  0  0999 V2000
  134.7340  135.5810  153.4540 N   0  0  0  0  0  0  0  0  0  0  0  0
  135.5180  135.1580  152.4060 C   0  0  0  0  0  0  0  0  0  0  0  0
  135.9350  134.0090  152.2940 O   0  0  0  0  0  0  0  0  0  0  0  0
  134.4760  136.5300  153.5050 H   0  0  0  0  0  0  0  0  0  0  0  0
  134.2790  134.6740  154.4840 C   0  0  0  0  0  2  0  0  0  0  0  0
  136.6720  135.9860  157.1500 C   0  0  0  0  0  0  0  0  0  0  0  0
  136.0850  135.7050  155.9130 C   0  0  0  0  0  3  0  0  0  0  0  0
  134.8730  134.9960  155.8290 C   0  0  0  0  0  0  0  0  0  0  0  0
  134.2340  134.5970  157.0120 C   0  0  0  0  0  3  0  0  0  0  0  0
  134.8080  134.8750  158.2520 C   0  0  0  0  0  3  0  0  0  0  0  0
  136.0220  135.5600  158.3160 C   0  0  0  0  0  0  0  0  0  0  0  0
  138.0340  137.8700  156.6150 C   0  0  0  0  0  1  0  0  0  0  0  0
  137.8580  136.6520  157.3270 O   0  0  0  0  0  0  0  0  0  0  0  0
  136.5910  135.8210  159.5340 O   0  0  0  0  0  0  0  0  0  0  0  0
  137.4960  135.6260  159.6800 H   0  0  0  0  0  0  0  0  0  0  0  0
  135.8350  136.2570  151.4070 C   0  0  0  0  0  2  0  0  0  0  0  0
  137.2600  136.1290  150.8690 C   0  0  0  0  0  2  0  0  0  0  0  0
  138.0050  137.4650  150.9000 C   0  0  0  0  0  2  0  0  0  0  0  0
  138.4560  137.8050  152.3230 C   0  0  0  0  0  2  0  0  0  0  0  0
  139.9540  137.7410  152.4890 C   0  0  0  0  0  0  0  0  0  0  0  0
  140.7720  137.3240  151.4300 C   0  0  0  0  0  3  0  0  0  0  0  0
  142.1600  137.2970  151.5760 C   0  0  0  0  0  3  0  0  0  0  0  0
  142.7440  137.6790  152.7830 C   0  0  0  0  0  3  0  0  0  0  0  0
  141.9390  138.0760  153.8480 C   0  0  0  0  0  3  0  0  0  0  0  0
  140.5510  138.1030  153.7050 C   0  0  0  0  0  3  0  0  0  0  0  0
  1  4  1  0  0  0  0
  1  5  1  0  0  0  0
  2  1  1  0  0  0  0
  3  2  2  0  0  0  0
  5  8  1  0  0  0  0
  6 13  1  0  0  0  0
  6 11  1  0  0  0  0
  7  6  2  0  0  0  0
  8  7  1  0  0  0  0
  8  9  2  0  0  0  0
  9 10  1  0  0  0  0
 10 11  2  0  0  0  0
 11 14  1  0  0  0  0
 12 13  1  0  0  0  0
 14 15  1  0  0  0  0
 16  2  1  0  0  0  0
 17 18  1  0  0  0  0
 17 16  1  0  0  0  0
 18 19  1  0  0  0  0
 19 20  1  0  0  0  0
 20 25  1  0  0  0  0
 21 22  1  0  0  0  0
 21 20  2  0  0  0  0
 22 23  2  0  0  0  0
 23 24  1  0  0  0  0
 25 24  2  0  0  0  0
M  END
>  <MODEL>
9

>  <REMARK>
 VINA RESULT:    -6.719      8.088     10.508
 INTER + INTRA:         -11.030
 INTER:                 -10.057
 INTRA:                  -0.973
 UNBOUND:                -0.973
  Name = CHEMBL88514
  10 active torsions:
  status: ('A' for Active; 'I' for Inactive)
    1  A    between atoms: C_1  and  O_2
    2  A    between atoms: O_2  and  C_3
    3  A    between atoms: C_5  and  C_6
    4  A    between atoms: C_6  and  N_7
    5  A    between atoms: C_8  and  C_10
    6  A    between atoms: C_10  and  C_11
    7  A    between atoms: C_11  and  C_12
    8  A    between atoms: C_12  and  C_13
    9  A    between atoms: C_13  and  C_14
   10  A    between atoms: C_22  and  O_23
                            x       y       z     vdW  Elec       q    Type
                         _______ _______ _______ _____ _____    ______ ____

>  <TORSDO>
F 9

>  <SCORE>
-6.719

>  <RMSD_LB>
8.088

>  <RMSD_UB>
10.508

$$$$
