CHEMBL87197
 OpenBabel10162523383D

 21 21  0  0  0  0  0  0  0  0999 V2000
  146.2060  137.3940  153.9740 C   0  0  0  0  0  2  0  0  0  0  0  0
  144.9490  137.9930  153.3930 C   0  0  0  0  0  0  0  0  0  0  0  0
  144.8170  138.1620  152.0110 C   0  0  0  0  0  3  0  0  0  0  0  0
  143.6700  138.7520  151.4790 C   0  0  0  0  0  3  0  0  0  0  0  0
  142.6370  139.1720  152.3210 C   0  0  0  0  0  0  0  0  0  0  0  0
  142.7390  139.0020  153.7060 C   0  0  0  0  0  0  0  0  0  0  0  0
  143.8990  138.4060  154.2260 C   0  0  0  0  0  3  0  0  0  0  0  0
  141.5390  139.7550  151.7490 O   0  0  0  0  0  0  0  0  0  0  0  0
  140.9280  140.2240  152.2820 H   0  0  0  0  0  0  0  0  0  0  0  0
  141.8400  139.3570  154.6760 O   0  0  0  0  0  0  0  0  0  0  0  0
  140.8130  138.4330  155.0040 C   0  0  0  0  0  1  0  0  0  0  0  0
  147.3480  139.4590  154.5970 N   0  0  0  0  0  0  0  0  0  0  0  0
  147.4030  138.3150  153.8360 C   0  0  0  0  0  0  0  0  0  0  0  0
  148.3470  138.0470  153.0910 O   0  0  0  0  0  0  0  0  0  0  0  0
  146.5780  139.6060  155.1940 H   0  0  0  0  0  0  0  0  0  0  0  0
  148.4030  140.4510  154.5380 C   0  0  0  0  0  2  0  0  0  0  0  0
  147.9440  141.7860  153.9520 C   0  0  0  0  0  2  0  0  0  0  0  0
  146.4180  141.8670  153.8530 C   0  0  0  0  0  2  0  0  0  0  0  0
  145.9480  141.8980  152.4000 C   0  0  0  0  0  2  0  0  0  0  0  0
  146.6020  142.6340  150.0850 C   0  0  0  0  0  1  0  0  0  0  0  0
  147.1070  142.2110  151.4540 C   0  0  0  0  0  2  0  0  0  0  0  0
  2  1  1  0  0  0  0
  2  7  1  0  0  0  0
  3  2  2  0  0  0  0
  4  3  1  0  0  0  0
  4  5  2  0  0  0  0
  5  6  1  0  0  0  0
  6  7  2  0  0  0  0
  6 10  1  0  0  0  0
  8  9  1  0  0  0  0
  8  5  1  0  0  0  0
 10 11  1  0  0  0  0
 12 15  1  0  0  0  0
 13  1  1  0  0  0  0
 13 12  1  0  0  0  0
 14 13  2  0  0  0  0
 16 12  1  0  0  0  0
 17 16  1  0  0  0  0
 18 17  1  0  0  0  0
 19 18  1  0  0  0  0
 20 21  1  0  0  0  0
 21 19  1  0  0  0  0
M  END
>  <MODEL>
1

>  <REMARK>
 VINA RESULT:    -6.016      0.000      0.000
 INTER + INTRA:          -9.482
 INTER:                  -8.271
 INTRA:                  -1.211
 UNBOUND:                -0.477
  Name = CHEMBL87197
  11 active torsions:
  status: ('A' for Active; 'I' for Inactive)
    1  A    between atoms: C_1  and  C_2
    2  A    between atoms: C_2  and  C_3
    3  A    between atoms: C_3  and  C_4
    4  A    between atoms: C_4  and  C_5
    5  A    between atoms: C_5  and  C_6
    6  A    between atoms: C_6  and  N_7
    7  A    between atoms: C_8  and  C_10
    8  A    between atoms: C_10  and  C_11
    9  A    between atoms: C_14  and  O_15
   10  A    between atoms: C_16  and  O_17
   11  A    between atoms: O_17  and  C_18
                            x       y       z     vdW  Elec       q    Type
                         _______ _______ _______ _____ _____    ______ ____

>  <TORSDO>
F 9

>  <SCORE>
-6.016

>  <RMSD_LB>
0.000

>  <RMSD_UB>
0.000

$$$$
CHEMBL87197
 OpenBabel10162523383D

 21 21  0  0  0  0  0  0  0  0999 V2000
  142.6260  137.2690  151.4870 C   0  0  0  0  0  2  0  0  0  0  0  0
  141.4190  137.7400  152.2590 C   0  0  0  0  0  0  0  0  0  0  0  0
  140.2050  137.9730  151.6050 C   0  0  0  0  0  3  0  0  0  0  0  0
  139.1000  138.4460  152.3140 C   0  0  0  0  0  3  0  0  0  0  0  0
  139.1930  138.6830  153.6880 C   0  0  0  0  0  0  0  0  0  0  0  0
  140.3920  138.4430  154.3680 C   0  0  0  0  0  0  0  0  0  0  0  0
  141.4940  137.9670  153.6410 C   0  0  0  0  0  3  0  0  0  0  0  0
  138.0840  139.1570  154.3340 O   0  0  0  0  0  0  0  0  0  0  0  0
  137.8360  138.7970  155.1620 H   0  0  0  0  0  0  0  0  0  0  0  0
  140.6680  138.6250  155.6980 O   0  0  0  0  0  0  0  0  0  0  0  0
  140.4690  137.5260  156.5750 C   0  0  0  0  0  1  0  0  0  0  0  0
  144.7650  138.2450  152.1450 N   0  0  0  0  0  0  0  0  0  0  0  0
  143.6680  138.3580  151.3220 C   0  0  0  0  0  0  0  0  0  0  0  0
  143.5290  139.2730  150.5090 O   0  0  0  0  0  0  0  0  0  0  0  0
  144.8320  137.4770  152.7580 H   0  0  0  0  0  0  0  0  0  0  0  0
  145.8230  139.2360  152.1260 C   0  0  0  0  0  2  0  0  0  0  0  0
  145.5480  140.4300  153.0390 C   0  0  0  0  0  2  0  0  0  0  0  0
  145.6910  141.7590  152.2940 C   0  0  0  0  0  2  0  0  0  0  0  0
  147.1440  142.2290  152.2530 C   0  0  0  0  0  2  0  0  0  0  0  0
  146.4820  142.6320  149.8590 C   0  0  0  0  0  1  0  0  0  0  0  0
  147.6360  142.3710  150.8130 C   0  0  0  0  0  2  0  0  0  0  0  0
  1  2  1  0  0  0  0
  2  7  1  0  0  0  0
  3  2  2  0  0  0  0
  3  4  1  0  0  0  0
  4  5  2  0  0  0  0
  5  8  1  0  0  0  0
  5  6  1  0  0  0  0
  6 10  1  0  0  0  0
  7  6  2  0  0  0  0
  8  9  1  0  0  0  0
 10 11  1  0  0  0  0
 12 15  1  0  0  0  0
 13  1  1  0  0  0  0
 13 12  1  0  0  0  0
 14 13  2  0  0  0  0
 16 12  1  0  0  0  0
 16 17  1  0  0  0  0
 18 17  1  0  0  0  0
 19 18  1  0  0  0  0
 20 21  1  0  0  0  0
 21 19  1  0  0  0  0
M  END
>  <MODEL>
2

>  <REMARK>
 VINA RESULT:    -5.990      2.329      3.413
 INTER + INTRA:          -9.444
 INTER:                  -8.794
 INTRA:                  -0.650
 UNBOUND:                -0.477
  Name = CHEMBL87197
  11 active torsions:
  status: ('A' for Active; 'I' for Inactive)
    1  A    between atoms: C_1  and  C_2
    2  A    between atoms: C_2  and  C_3
    3  A    between atoms: C_3  and  C_4
    4  A    between atoms: C_4  and  C_5
    5  A    between atoms: C_5  and  C_6
    6  A    between atoms: C_6  and  N_7
    7  A    between atoms: C_8  and  C_10
    8  A    between atoms: C_10  and  C_11
    9  A    between atoms: C_14  and  O_15
   10  A    between atoms: C_16  and  O_17
   11  A    between atoms: O_17  and  C_18
                            x       y       z     vdW  Elec       q    Type
                         _______ _______ _______ _____ _____    ______ ____

>  <TORSDO>
F 9

>  <SCORE>
-5.990

>  <RMSD_LB>
2.329

>  <RMSD_UB>
3.413

$$$$
CHEMBL87197
 OpenBabel10162523383D

 21 21  0  0  0  0  0  0  0  0999 V2000
  143.3160  137.4220  153.1280 C   0  0  0  0  0  2  0  0  0  0  0  0
  141.9330  137.9460  153.4290 C   0  0  0  0  0  0  0  0  0  0  0  0
  141.4190  137.8810  154.7280 C   0  0  0  0  0  3  0  0  0  0  0  0
  140.1250  138.3290  154.9980 C   0  0  0  0  0  3  0  0  0  0  0  0
  139.3350  138.8580  153.9730 C   0  0  0  0  0  0  0  0  0  0  0  0
  139.8320  138.9470  152.6690 C   0  0  0  0  0  0  0  0  0  0  0  0
  141.1350  138.4920  152.4140 C   0  0  0  0  0  3  0  0  0  0  0  0
  138.0700  139.2740  154.2890 O   0  0  0  0  0  0  0  0  0  0  0  0
  137.7830  139.2650  155.1800 H   0  0  0  0  0  0  0  0  0  0  0  0
  139.2040  139.4230  151.5490 O   0  0  0  0  0  0  0  0  0  0  0  0
  140.0080  139.7750  150.4330 C   0  0  0  0  0  1  0  0  0  0  0  0
  144.9160  138.8630  151.9780 N   0  0  0  0  0  0  0  0  0  0  0  0
  144.3730  138.5070  153.1910 C   0  0  0  0  0  0  0  0  0  0  0  0
  144.7130  139.0220  154.2570 O   0  0  0  0  0  0  0  0  0  0  0  0
  144.5850  138.4330  151.1560 H   0  0  0  0  0  0  0  0  0  0  0  0
  145.9650  139.8590  151.8880 C   0  0  0  0  0  2  0  0  0  0  0  0
  145.4330  141.2900  151.8100 C   0  0  0  0  0  2  0  0  0  0  0  0
  146.3920  142.2880  152.4630 C   0  0  0  0  0  2  0  0  0  0  0  0
  146.6560  141.9420  153.9270 C   0  0  0  0  0  2  0  0  0  0  0  0
  148.9600  141.8770  152.9180 C   0  0  0  0  0  1  0  0  0  0  0  0
  148.1560  141.8450  154.2060 C   0  0  0  0  0  2  0  0  0  0  0  0
  1 13  1  0  0  0  0
  1  2  1  0  0  0  0
  2  3  1  0  0  0  0
  3  4  2  0  0  0  0
  5  8  1  0  0  0  0
  5  4  1  0  0  0  0
  6  5  2  0  0  0  0
  7  6  1  0  0  0  0
  7  2  2  0  0  0  0
  8  9  1  0  0  0  0
 10  6  1  0  0  0  0
 11 10  1  0  0  0  0
 12 13  1  0  0  0  0
 13 14  2  0  0  0  0
 15 12  1  0  0  0  0
 16 12  1  0  0  0  0
 17 16  1  0  0  0  0
 17 18  1  0  0  0  0
 18 19  1  0  0  0  0
 19 21  1  0  0  0  0
 20 21  1  0  0  0  0
M  END
>  <MODEL>
3

>  <REMARK>
 VINA RESULT:    -5.988      2.044      3.598
 INTER + INTRA:          -9.440
 INTER:                  -8.779
 INTRA:                  -0.661
 UNBOUND:                -0.477
  Name = CHEMBL87197
  11 active torsions:
  status: ('A' for Active; 'I' for Inactive)
    1  A    between atoms: C_1  and  C_2
    2  A    between atoms: C_2  and  C_3
    3  A    between atoms: C_3  and  C_4
    4  A    between atoms: C_4  and  C_5
    5  A    between atoms: C_5  and  C_6
    6  A    between atoms: C_6  and  N_7
    7  A    between atoms: C_8  and  C_10
    8  A    between atoms: C_10  and  C_11
    9  A    between atoms: C_14  and  O_15
   10  A    between atoms: C_16  and  O_17
   11  A    between atoms: O_17  and  C_18
                            x       y       z     vdW  Elec       q    Type
                         _______ _______ _______ _____ _____    ______ ____

>  <TORSDO>
F 9

>  <SCORE>
-5.988

>  <RMSD_LB>
2.044

>  <RMSD_UB>
3.598

$$$$
CHEMBL87197
 OpenBabel10162523383D

 21 21  0  0  0  0  0  0  0  0999 V2000
  146.9790  136.9870  153.3670 C   0  0  0  0  0  2  0  0  0  0  0  0
  145.5380  137.1370  152.9450 C   0  0  0  0  0  0  0  0  0  0  0  0
  144.5480  137.4240  153.8910 C   0  0  0  0  0  3  0  0  0  0  0  0
  143.2110  137.5230  153.5050 C   0  0  0  0  0  3  0  0  0  0  0  0
  142.8490  137.3470  152.1660 C   0  0  0  0  0  0  0  0  0  0  0  0
  143.8220  137.0740  151.1990 C   0  0  0  0  0  0  0  0  0  0  0  0
  145.1630  136.9770  151.6040 C   0  0  0  0  0  3  0  0  0  0  0  0
  141.5230  137.4440  151.8420 O   0  0  0  0  0  0  0  0  0  0  0  0
  141.0150  138.1620  152.1620 H   0  0  0  0  0  0  0  0  0  0  0  0
  143.6530  136.8650  149.8560 O   0  0  0  0  0  0  0  0  0  0  0  0
  143.6080  135.5240  149.3910 C   0  0  0  0  0  1  0  0  0  0  0  0
  147.8160  139.2580  153.6860 N   0  0  0  0  0  0  0  0  0  0  0  0
  147.4250  138.0930  154.3040 C   0  0  0  0  0  0  0  0  0  0  0  0
  147.4360  137.9440  155.5270 O   0  0  0  0  0  0  0  0  0  0  0  0
  147.7620  139.3260  152.7050 H   0  0  0  0  0  0  0  0  0  0  0  0
  148.3050  140.3870  154.4520 C   0  0  0  0  0  2  0  0  0  0  0  0
  147.5450  141.6830  154.1690 C   0  0  0  0  0  2  0  0  0  0  0  0
  147.3620  141.9150  152.6670 C   0  0  0  0  0  2  0  0  0  0  0  0
  145.9230  142.2980  152.3270 C   0  0  0  0  0  2  0  0  0  0  0  0
  146.9290  142.7020  150.0560 C   0  0  0  0  0  1  0  0  0  0  0  0
  145.6880  142.2660  150.8160 C   0  0  0  0  0  2  0  0  0  0  0  0
  1 13  1  0  0  0  0
  2  1  1  0  0  0  0
  2  3  1  0  0  0  0
  4  3  2  0  0  0  0
  5  4  1  0  0  0  0
  6  7  1  0  0  0  0
  6  5  2  0  0  0  0
  7  2  2  0  0  0  0
  8  9  1  0  0  0  0
  8  5  1  0  0  0  0
 10  6  1  0  0  0  0
 11 10  1  0  0  0  0
 12 13  1  0  0  0  0
 12 16  1  0  0  0  0
 13 14  2  0  0  0  0
 15 12  1  0  0  0  0
 17 16  1  0  0  0  0
 18 17  1  0  0  0  0
 19 18  1  0  0  0  0
 20 21  1  0  0  0  0
 21 19  1  0  0  0  0
M  END
>  <MODEL>
4

>  <REMARK>
 VINA RESULT:    -5.917      1.790      2.682
 INTER + INTRA:          -9.334
 INTER:                  -8.715
 INTRA:                  -0.620
 UNBOUND:                -0.477
  Name = CHEMBL87197
  11 active torsions:
  status: ('A' for Active; 'I' for Inactive)
    1  A    between atoms: C_1  and  C_2
    2  A    between atoms: C_2  and  C_3
    3  A    between atoms: C_3  and  C_4
    4  A    between atoms: C_4  and  C_5
    5  A    between atoms: C_5  and  C_6
    6  A    between atoms: C_6  and  N_7
    7  A    between atoms: C_8  and  C_10
    8  A    between atoms: C_10  and  C_11
    9  A    between atoms: C_14  and  O_15
   10  A    between atoms: C_16  and  O_17
   11  A    between atoms: O_17  and  C_18
                            x       y       z     vdW  Elec       q    Type
                         _______ _______ _______ _____ _____    ______ ____

>  <TORSDO>
F 9

>  <SCORE>
-5.917

>  <RMSD_LB>
1.790

>  <RMSD_UB>
2.682

$$$$
CHEMBL87197
 OpenBabel10162523383D

 21 21  0  0  0  0  0  0  0  0999 V2000
  146.7400  137.7120  151.4980 C   0  0  0  0  0  2  0  0  0  0  0  0
  146.0900  138.3900  150.3170 C   0  0  0  0  0  0  0  0  0  0  0  0
  146.8670  139.0670  149.3720 C   0  0  0  0  0  3  0  0  0  0  0  0
  146.2610  139.7270  148.3030 C   0  0  0  0  0  3  0  0  0  0  0  0
  144.8710  139.7100  148.1600 C   0  0  0  0  0  0  0  0  0  0  0  0
  144.0720  139.0280  149.0840 C   0  0  0  0  0  0  0  0  0  0  0  0
  144.6970  138.3690  150.1540 C   0  0  0  0  0  3  0  0  0  0  0  0
  144.3260  140.3830  147.1000 O   0  0  0  0  0  0  0  0  0  0  0  0
  144.3700  140.0150  146.2400 H   0  0  0  0  0  0  0  0  0  0  0  0
  142.7080  138.9130  149.1090 O   0  0  0  0  0  0  0  0  0  0  0  0
  141.9660  139.9210  149.7800 C   0  0  0  0  0  1  0  0  0  0  0  0
  148.2490  139.2000  152.7090 N   0  0  0  0  0  0  0  0  0  0  0  0
  146.9820  138.6650  152.6520 C   0  0  0  0  0  0  0  0  0  0  0  0
  146.1030  138.9300  153.4720 O   0  0  0  0  0  0  0  0  0  0  0  0
  148.9030  138.9700  152.0090 H   0  0  0  0  0  0  0  0  0  0  0  0
  148.6370  140.0960  153.7800 C   0  0  0  0  0  2  0  0  0  0  0  0
  148.5420  141.5720  153.3950 C   0  0  0  0  0  2  0  0  0  0  0  0
  148.9150  141.8010  151.9280 C   0  0  0  0  0  2  0  0  0  0  0  0
  147.7210  142.2930  151.1120 C   0  0  0  0  0  2  0  0  0  0  0  0
  145.2240  141.9870  151.1450 C   0  0  0  0  0  1  0  0  0  0  0  0
  146.4540  142.3390  151.9650 C   0  0  0  0  0  2  0  0  0  0  0  0
  1 13  1  0  0  0  0
  2  1  1  0  0  0  0
  3  2  2  0  0  0  0
  4  3  1  0  0  0  0
  5  4  2  0  0  0  0
  5  6  1  0  0  0  0
  6 10  1  0  0  0  0
  6  7  2  0  0  0  0
  7  2  1  0  0  0  0
  8  5  1  0  0  0  0
  9  8  1  0  0  0  0
 10 11  1  0  0  0  0
 12 16  1  0  0  0  0
 13 12  1  0  0  0  0
 13 14  2  0  0  0  0
 15 12  1  0  0  0  0
 17 16  1  0  0  0  0
 18 17  1  0  0  0  0
 19 18  1  0  0  0  0
 19 21  1  0  0  0  0
 20 21  1  0  0  0  0
M  END
>  <MODEL>
5

>  <REMARK>
 VINA RESULT:    -5.899      2.641      3.519
 INTER + INTRA:          -9.307
 INTER:                  -7.629
 INTRA:                  -1.678
 UNBOUND:                -0.477
  Name = CHEMBL87197
  11 active torsions:
  status: ('A' for Active; 'I' for Inactive)
    1  A    between atoms: C_1  and  C_2
    2  A    between atoms: C_2  and  C_3
    3  A    between atoms: C_3  and  C_4
    4  A    between atoms: C_4  and  C_5
    5  A    between atoms: C_5  and  C_6
    6  A    between atoms: C_6  and  N_7
    7  A    between atoms: C_8  and  C_10
    8  A    between atoms: C_10  and  C_11
    9  A    between atoms: C_14  and  O_15
   10  A    between atoms: C_16  and  O_17
   11  A    between atoms: O_17  and  C_18
                            x       y       z     vdW  Elec       q    Type
                         _______ _______ _______ _____ _____    ______ ____

>  <TORSDO>
F 9

>  <SCORE>
-5.899

>  <RMSD_LB>
2.641

>  <RMSD_UB>
3.519

$$$$
CHEMBL87197
 OpenBabel10162523383D

 21 21  0  0  0  0  0  0  0  0999 V2000
  147.3020  137.6080  151.6750 C   0  0  0  0  0  2  0  0  0  0  0  0
  146.3950  138.3280  150.7080 C   0  0  0  0  0  0  0  0  0  0  0  0
  145.0400  138.5070  151.0070 C   0  0  0  0  0  3  0  0  0  0  0  0
  144.1940  139.1380  150.0950 C   0  0  0  0  0  3  0  0  0  0  0  0
  144.6940  139.6070  148.8770 C   0  0  0  0  0  0  0  0  0  0  0  0
  146.0480  139.4540  148.5610 C   0  0  0  0  0  0  0  0  0  0  0  0
  146.8870  138.8160  149.4900 C   0  0  0  0  0  3  0  0  0  0  0  0
  143.8200  140.2090  148.0140 O   0  0  0  0  0  0  0  0  0  0  0  0
  143.2290  140.8640  148.3270 H   0  0  0  0  0  0  0  0  0  0  0  0
  146.7060  139.8390  147.4240 O   0  0  0  0  0  0  0  0  0  0  0  0
  147.5610  138.8940  146.7960 C   0  0  0  0  0  1  0  0  0  0  0  0
  148.2990  139.4310  152.9550 N   0  0  0  0  0  0  0  0  0  0  0  0
  147.4520  138.3480  152.9900 C   0  0  0  0  0  0  0  0  0  0  0  0
  146.8550  137.9920  154.0070 O   0  0  0  0  0  0  0  0  0  0  0  0
  148.7290  139.6820  152.1050 H   0  0  0  0  0  0  0  0  0  0  0  0
  148.5700  140.2110  154.1470 C   0  0  0  0  0  2  0  0  0  0  0  0
  148.1060  141.6630  154.0370 C   0  0  0  0  0  2  0  0  0  0  0  0
  147.5940  141.9890  152.6310 C   0  0  0  0  0  2  0  0  0  0  0  0
  146.1270  142.4150  152.6500 C   0  0  0  0  0  2  0  0  0  0  0  0
  146.4650  142.7720  150.1820 C   0  0  0  0  0  1  0  0  0  0  0  0
  145.5040  142.2980  151.2590 C   0  0  0  0  0  2  0  0  0  0  0  0
  1 13  1  0  0  0  0
  2  3  1  0  0  0  0
  2  1  1  0  0  0  0
  4  3  2  0  0  0  0
  5  4  1  0  0  0  0
  6  5  2  0  0  0  0
  6  7  1  0  0  0  0
  7  2  2  0  0  0  0
  8  9  1  0  0  0  0
  8  5  1  0  0  0  0
 10  6  1  0  0  0  0
 11 10  1  0  0  0  0
 12 13  1  0  0  0  0
 12 16  1  0  0  0  0
 13 14  2  0  0  0  0
 15 12  1  0  0  0  0
 17 16  1  0  0  0  0
 18 19  1  0  0  0  0
 18 17  1  0  0  0  0
 20 21  1  0  0  0  0
 21 19  1  0  0  0  0
M  END
>  <MODEL>
6

>  <REMARK>
 VINA RESULT:    -5.890      2.712      4.151
 INTER + INTRA:          -9.294
 INTER:                  -7.872
 INTRA:                  -1.422
 UNBOUND:                -0.477
  Name = CHEMBL87197
  11 active torsions:
  status: ('A' for Active; 'I' for Inactive)
    1  A    between atoms: C_1  and  C_2
    2  A    between atoms: C_2  and  C_3
    3  A    between atoms: C_3  and  C_4
    4  A    between atoms: C_4  and  C_5
    5  A    between atoms: C_5  and  C_6
    6  A    between atoms: C_6  and  N_7
    7  A    between atoms: C_8  and  C_10
    8  A    between atoms: C_10  and  C_11
    9  A    between atoms: C_14  and  O_15
   10  A    between atoms: C_16  and  O_17
   11  A    between atoms: O_17  and  C_18
                            x       y       z     vdW  Elec       q    Type
                         _______ _______ _______ _____ _____    ______ ____

>  <TORSDO>
F 9

>  <SCORE>
-5.890

>  <RMSD_LB>
2.712

>  <RMSD_UB>
4.151

$$$$
CHEMBL87197
 OpenBabel10162523383D

 21 21  0  0  0  0  0  0  0  0999 V2000
  144.7790  138.2640  149.7420 C   0  0  0  0  0  2  0  0  0  0  0  0
  144.5700  138.4170  151.2280 C   0  0  0  0  0  0  0  0  0  0  0  0
  143.6520  139.3490  151.7230 C   0  0  0  0  0  3  0  0  0  0  0  0
  143.4890  139.5180  153.0980 C   0  0  0  0  0  3  0  0  0  0  0  0
  144.2350  138.7490  153.9960 C   0  0  0  0  0  0  0  0  0  0  0  0
  145.1500  137.8000  153.5260 C   0  0  0  0  0  0  0  0  0  0  0  0
  145.3020  137.6430  152.1400 C   0  0  0  0  0  3  0  0  0  0  0  0
  144.0450  138.9610  155.3340 O   0  0  0  0  0  0  0  0  0  0  0  0
  144.6320  139.5170  155.8080 H   0  0  0  0  0  0  0  0  0  0  0  0
  145.9650  136.9720  154.2510 O   0  0  0  0  0  0  0  0  0  0  0  0
  147.3690  137.1150  154.0930 C   0  0  0  0  0  1  0  0  0  0  0  0
  146.1420  140.2640  149.4230 N   0  0  0  0  0  0  0  0  0  0  0  0
  145.0000  139.5940  149.0480 C   0  0  0  0  0  0  0  0  0  0  0  0
  144.2060  140.0320  148.2150 O   0  0  0  0  0  0  0  0  0  0  0  0
  146.7510  139.8510  150.0770 H   0  0  0  0  0  0  0  0  0  0  0  0
  146.4630  141.5660  148.8730 C   0  0  0  0  0  2  0  0  0  0  0  0
  146.6850  142.6350  149.9420 C   0  0  0  0  0  2  0  0  0  0  0  0
  145.5340  142.6770  150.9500 C   0  0  0  0  0  2  0  0  0  0  0  0
  146.0010  142.3050  152.3560 C   0  0  0  0  0  2  0  0  0  0  0  0
  147.7590  140.5600  152.8000 C   0  0  0  0  0  1  0  0  0  0  0  0
  147.4980  141.9960  152.3740 C   0  0  0  0  0  2  0  0  0  0  0  0
  1  2  1  0  0  0  0
  2  3  2  0  0  0  0
  2  7  1  0  0  0  0
  3  4  1  0  0  0  0
  4  5  2  0  0  0  0
  5  8  1  0  0  0  0
  6  5  1  0  0  0  0
  6 10  1  0  0  0  0
  7  6  2  0  0  0  0
  8  9  1  0  0  0  0
 11 10  1  0  0  0  0
 12 15  1  0  0  0  0
 13 12  1  0  0  0  0
 13  1  1  0  0  0  0
 14 13  2  0  0  0  0
 16 12  1  0  0  0  0
 16 17  1  0  0  0  0
 17 18  1  0  0  0  0
 18 19  1  0  0  0  0
 19 21  1  0  0  0  0
 21 20  1  0  0  0  0
M  END
>  <MODEL>
7

>  <REMARK>
 VINA RESULT:    -5.764      2.189      4.125
 INTER + INTRA:          -9.105
 INTER:                  -7.603
 INTRA:                  -1.502
 UNBOUND:                -0.477
  Name = CHEMBL87197
  11 active torsions:
  status: ('A' for Active; 'I' for Inactive)
    1  A    between atoms: C_1  and  C_2
    2  A    between atoms: C_2  and  C_3
    3  A    between atoms: C_3  and  C_4
    4  A    between atoms: C_4  and  C_5
    5  A    between atoms: C_5  and  C_6
    6  A    between atoms: C_6  and  N_7
    7  A    between atoms: C_8  and  C_10
    8  A    between atoms: C_10  and  C_11
    9  A    between atoms: C_14  and  O_15
   10  A    between atoms: C_16  and  O_17
   11  A    between atoms: O_17  and  C_18
                            x       y       z     vdW  Elec       q    Type
                         _______ _______ _______ _____ _____    ______ ____

>  <TORSDO>
F 9

>  <SCORE>
-5.764

>  <RMSD_LB>
2.189

>  <RMSD_UB>
4.125

$$$$
CHEMBL87197
 OpenBabel10162523383D

 21 21  0  0  0  0  0  0  0  0999 V2000
  136.9810  136.0500  149.5540 C   0  0  0  0  0  2  0  0  0  0  0  0
  135.8880  136.1400  148.5190 C   0  0  0  0  0  0  0  0  0  0  0  0
  134.7710  136.9540  148.7350 C   0  0  0  0  0  3  0  0  0  0  0  0
  133.7430  137.0060  147.7940 C   0  0  0  0  0  3  0  0  0  0  0  0
  133.8230  136.2520  146.6200 C   0  0  0  0  0  0  0  0  0  0  0  0
  134.9360  135.4420  146.3730 C   0  0  0  0  0  0  0  0  0  0  0  0
  135.9620  135.4000  147.3300 C   0  0  0  0  0  3  0  0  0  0  0  0
  132.7820  136.3310  145.7350 O   0  0  0  0  0  0  0  0  0  0  0  0
  132.0820  135.7100  145.7800 H   0  0  0  0  0  0  0  0  0  0  0  0
  135.1790  134.6350  145.2930 O   0  0  0  0  0  0  0  0  0  0  0  0
  134.6100  133.3340  145.2920 C   0  0  0  0  0  1  0  0  0  0  0  0
  135.7870  134.6570  151.1650 N   0  0  0  0  0  0  0  0  0  0  0  0
  136.4360  135.8520  150.9550 C   0  0  0  0  0  0  0  0  0  0  0  0
  136.5690  136.7080  151.8310 O   0  0  0  0  0  0  0  0  0  0  0  0
  135.7350  134.0010  150.4320 H   0  0  0  0  0  0  0  0  0  0  0  0
  135.1810  134.3460  152.4440 C   0  0  0  0  0  2  0  0  0  0  0  0
  133.6620  134.5190  152.4490 C   0  0  0  0  0  2  0  0  0  0  0  0
  133.1270  134.8750  151.0590 C   0  0  0  0  0  2  0  0  0  0  0  0
  132.4810  133.6710  150.3770 C   0  0  0  0  0  2  0  0  0  0  0  0
  134.1070  132.4870  148.8650 C   0  0  0  0  0  1  0  0  0  0  0  0
  132.9890  133.5130  148.9440 C   0  0  0  0  0  2  0  0  0  0  0  0
  1 13  1  0  0  0  0
  2  3  1  0  0  0  0
  2  1  1  0  0  0  0
  4  3  2  0  0  0  0
  5  4  1  0  0  0  0
  6  5  2  0  0  0  0
  6  7  1  0  0  0  0
  7  2  2  0  0  0  0
  8  9  1  0  0  0  0
  8  5  1  0  0  0  0
 10  6  1  0  0  0  0
 11 10  1  0  0  0  0
 12 16  1  0  0  0  0
 13 12  1  0  0  0  0
 13 14  2  0  0  0  0
 15 12  1  0  0  0  0
 16 17  1  0  0  0  0
 18 17  1  0  0  0  0
 19 18  1  0  0  0  0
 20 21  1  0  0  0  0
 21 19  1  0  0  0  0
M  END
>  <MODEL>
8

>  <REMARK>
 VINA RESULT:    -5.740     10.128     12.971
 INTER + INTRA:          -9.070
 INTER:                  -7.471
 INTRA:                  -1.599
 UNBOUND:                -0.477
  Name = CHEMBL87197
  11 active torsions:
  status: ('A' for Active; 'I' for Inactive)
    1  A    between atoms: C_1  and  C_2
    2  A    between atoms: C_2  and  C_3
    3  A    between atoms: C_3  and  C_4
    4  A    between atoms: C_4  and  C_5
    5  A    between atoms: C_5  and  C_6
    6  A    between atoms: C_6  and  N_7
    7  A    between atoms: C_8  and  C_10
    8  A    between atoms: C_10  and  C_11
    9  A    between atoms: C_14  and  O_15
   10  A    between atoms: C_16  and  O_17
   11  A    between atoms: O_17  and  C_18
                            x       y       z     vdW  Elec       q    Type
                         _______ _______ _______ _____ _____    ______ ____

>  <TORSDO>
F 9

>  <SCORE>
-5.740

>  <RMSD_LB>
10.128

>  <RMSD_UB>
12.971

$$$$
CHEMBL87197
 OpenBabel10162523383D

 21 21  0  0  0  0  0  0  0  0999 V2000
  146.4970  142.2750  150.0600 C   0  0  0  0  0  2  0  0  0  0  0  0
  147.1050  141.9560  151.4040 C   0  0  0  0  0  0  0  0  0  0  0  0
  148.4650  142.1840  151.6390 C   0  0  0  0  0  3  0  0  0  0  0  0
  149.0330  141.8520  152.8690 C   0  0  0  0  0  3  0  0  0  0  0  0
  148.2460  141.2980  153.8830 C   0  0  0  0  0  0  0  0  0  0  0  0
  146.8810  141.0740  153.6770 C   0  0  0  0  0  0  0  0  0  0  0  0
  146.3240  141.4130  152.4340 C   0  0  0  0  0  3  0  0  0  0  0  0
  148.8550  140.9810  155.0670 O   0  0  0  0  0  0  0  0  0  0  0  0
  149.7730  140.7970  155.0860 H   0  0  0  0  0  0  0  0  0  0  0  0
  145.9660  140.5370  154.5440 O   0  0  0  0  0  0  0  0  0  0  0  0
  145.9470  139.1260  154.7020 C   0  0  0  0  0  1  0  0  0  0  0  0
  144.5570  140.8860  149.5420 N   0  0  0  0  0  0  0  0  0  0  0  0
  145.9140  141.0490  149.3840 C   0  0  0  0  0  0  0  0  0  0  0  0
  146.6160  140.2630  148.7460 O   0  0  0  0  0  0  0  0  0  0  0  0
  144.0450  141.5620  150.0420 H   0  0  0  0  0  0  0  0  0  0  0  0
  143.8690  139.7390  148.9830 C   0  0  0  0  0  2  0  0  0  0  0  0
  142.5370  139.4420  149.6710 C   0  0  0  0  0  2  0  0  0  0  0  0
  142.7180  138.5310  150.8880 C   0  0  0  0  0  2  0  0  0  0  0  0
  141.5040  137.6290  151.1030 C   0  0  0  0  0  2  0  0  0  0  0  0
  139.8020  138.5790  152.6930 C   0  0  0  0  0  1  0  0  0  0  0  0
  141.0250  137.6880  152.5530 C   0  0  0  0  0  2  0  0  0  0  0  0
  1  2  1  0  0  0  0
  2  3  2  0  0  0  0
  2  7  1  0  0  0  0
  3  4  1  0  0  0  0
  4  5  2  0  0  0  0
  5  8  1  0  0  0  0
  6  5  1  0  0  0  0
  6 10  1  0  0  0  0
  7  6  2  0  0  0  0
  8  9  1  0  0  0  0
 10 11  1  0  0  0  0
 12 15  1  0  0  0  0
 13 12  1  0  0  0  0
 13  1  1  0  0  0  0
 14 13  2  0  0  0  0
 16 12  1  0  0  0  0
 16 17  1  0  0  0  0
 17 18  1  0  0  0  0
 18 19  1  0  0  0  0
 19 21  1  0  0  0  0
 21 20  1  0  0  0  0
M  END
>  <MODEL>
9

>  <REMARK>
 VINA RESULT:    -5.715      2.671      6.160
 INTER + INTRA:          -9.033
 INTER:                  -8.555
 INTRA:                  -0.477
 UNBOUND:                -0.477
  Name = CHEMBL87197
  11 active torsions:
  status: ('A' for Active; 'I' for Inactive)
    1  A    between atoms: C_1  and  C_2
    2  A    between atoms: C_2  and  C_3
    3  A    between atoms: C_3  and  C_4
    4  A    between atoms: C_4  and  C_5
    5  A    between atoms: C_5  and  C_6
    6  A    between atoms: C_6  and  N_7
    7  A    between atoms: C_8  and  C_10
    8  A    between atoms: C_10  and  C_11
    9  A    between atoms: C_14  and  O_15
   10  A    between atoms: C_16  and  O_17
   11  A    between atoms: O_17  and  C_18
                            x       y       z     vdW  Elec       q    Type
                         _______ _______ _______ _____ _____    ______ ____

>  <TORSDO>
F 9

>  <SCORE>
-5.715

>  <RMSD_LB>
2.671

>  <RMSD_UB>
6.160

$$$$
