CHEMBL87171
 OpenBabel10172500543D

 26 26  0  0  0  0  0  0  0  0999 V2000
  145.6010  140.5710  148.9610 C   0  0  0  0  0  0  0  0  0  0  0  0
  146.6310  140.0060  148.6110 O   0  0  0  0  0  0  0  0  0  0  0  0
  145.5880  141.8360  149.5010 N   0  0  0  0  0  0  0  0  0  0  0  0
  144.7290  142.2710  149.7070 H   0  0  0  0  0  0  0  0  0  0  0  0
  144.2200  139.9530  148.8280 C   0  0  0  0  0  2  0  0  0  0  0  0
  143.4210  140.1030  150.1220 C   0  0  0  0  0  2  0  0  0  0  0  0
  144.0770  139.3760  151.2970 C   0  0  0  0  0  2  0  0  0  0  0  0
  143.5410  137.9470  151.4080 C   0  0  0  0  0  2  0  0  0  0  0  0
  144.6480  136.9100  151.2260 C   0  0  0  0  0  2  0  0  0  0  0  0
  146.0120  137.5910  151.1180 C   0  0  0  0  0  2  0  0  0  0  0  0
  146.8330  137.4260  152.3970 C   0  0  0  0  0  2  0  0  0  0  0  0
  148.3050  137.1840  152.0590 C   0  0  0  0  0  2  0  0  0  0  0  0
  151.2230  136.2600  152.3650 C   0  0  0  0  0  1  0  0  0  0  0  0
  150.4730  137.0830  153.3600 C   0  0  0  0  0  3  0  0  0  0  0  0
  149.2010  137.4910  153.2240 C   0  0  0  0  0  3  0  0  0  0  0  0
  146.8250  142.5310  149.7690 C   0  0  0  0  0  2  0  0  0  0  0  0
  147.3530  142.1950  151.1370 C   0  0  0  0  0  0  0  0  0  0  0  0
  148.7320  142.1410  151.3670 C   0  0  0  0  0  3  0  0  0  0  0  0
  149.2250  141.8300  152.6340 C   0  0  0  0  0  3  0  0  0  0  0  0
  148.3450  141.5740  153.6910 C   0  0  0  0  0  0  0  0  0  0  0  0
  146.9620  141.6280  153.4870 C   0  0  0  0  0  0  0  0  0  0  0  0
  146.4820  141.9460  152.2070 C   0  0  0  0  0  3  0  0  0  0  0  0
  148.8790  141.2820  154.9160 O   0  0  0  0  0  0  0  0  0  0  0  0
  149.7870  141.4410  155.0820 H   0  0  0  0  0  0  0  0  0  0  0  0
  145.9570  141.4040  154.3890 O   0  0  0  0  0  0  0  0  0  0  0  0
  145.3070  140.1420  154.3720 C   0  0  0  0  0  1  0  0  0  0  0  0
  1  3  1  0  0  0  0
  2  1  2  0  0  0  0
  3  4  1  0  0  0  0
  3 16  1  0  0  0  0
  5  1  1  0  0  0  0
  5  6  1  0  0  0  0
  6  7  1  0  0  0  0
  7  8  1  0  0  0  0
  9  8  1  0  0  0  0
 10  9  1  0  0  0  0
 10 11  1  0  0  0  0
 12 11  1  0  0  0  0
 12 15  1  0  0  0  0
 13 14  1  0  0  0  0
 15 14  2  0  0  0  0
 16 17  1  0  0  0  0
 17 18  2  0  0  0  0
 17 22  1  0  0  0  0
 18 19  1  0  0  0  0
 19 20  2  0  0  0  0
 20 23  1  0  0  0  0
 21 20  1  0  0  0  0
 21 25  1  0  0  0  0
 22 21  2  0  0  0  0
 23 24  1  0  0  0  0
 26 25  1  0  0  0  0
M  END
>  <MODEL>
1

>  <REMARK>
 VINA RESULT:    -6.362      0.000      0.000
 INTER + INTRA:         -12.372
 INTER:                 -10.789
 INTRA:                  -1.582
 UNBOUND:                -1.360
  Name = CHEMBL87171
  15 active torsions:
  status: ('A' for Active; 'I' for Inactive)
    1  A    between atoms: C_1  and  C_2
    2  A    between atoms: C_3  and  C_4
    3  A    between atoms: C_4  and  C_5
    4  A    between atoms: C_5  and  C_6
    5  A    between atoms: C_6  and  C_7
    6  A    between atoms: C_7  and  C_8
    7  A    between atoms: C_8  and  C_9
    8  A    between atoms: C_9  and  C_10
    9  A    between atoms: C_10  and  C_11
   10  A    between atoms: C_11  and  C_12
   11  A    between atoms: N_14  and  C_15
   12  A    between atoms: C_15  and  C_16
   13  A    between atoms: C_19  and  O_20
   14  A    between atoms: C_21  and  O_22
   15  A    between atoms: O_22  and  C_23
                            x       y       z     vdW  Elec       q    Type
                         _______ _______ _______ _____ _____    ______ ____

>  <TORSDO>
F 13

>  <SCORE>
-6.362

>  <RMSD_LB>
0.000

>  <RMSD_UB>
0.000

$$$$
CHEMBL87171
 OpenBabel10172500543D

 26 26  0  0  0  0  0  0  0  0999 V2000
  146.0690  141.3030  147.7780 C   0  0  0  0  0  0  0  0  0  0  0  0
  146.7450  141.9530  146.9890 O   0  0  0  0  0  0  0  0  0  0  0  0
  146.0040  141.5910  149.1210 N   0  0  0  0  0  0  0  0  0  0  0  0
  145.3970  141.0770  149.7040 H   0  0  0  0  0  0  0  0  0  0  0  0
  145.2150  140.1150  147.3700 C   0  0  0  0  0  2  0  0  0  0  0  0
  144.3270  139.6510  148.5240 C   0  0  0  0  0  2  0  0  0  0  0  0
  144.6880  138.2460  149.0070 C   0  0  0  0  0  2  0  0  0  0  0  0
  145.6000  138.3190  150.2330 C   0  0  0  0  0  2  0  0  0  0  0  0
  145.2080  137.2920  151.2940 C   0  0  0  0  0  2  0  0  0  0  0  0
  143.7490  136.8710  151.1240 C   0  0  0  0  0  2  0  0  0  0  0  0
  142.8480  137.4990  152.1870 C   0  0  0  0  0  2  0  0  0  0  0  0
  141.3770  137.3550  151.7930 C   0  0  0  0  0  2  0  0  0  0  0  0
  140.7790  139.7050  149.8990 C   0  0  0  0  0  1  0  0  0  0  0  0
  140.9410  138.2810  149.4780 C   0  0  0  0  0  3  0  0  0  0  0  0
  141.2070  137.2560  150.3040 C   0  0  0  0  0  3  0  0  0  0  0  0
  146.8210  142.6400  149.6860 C   0  0  0  0  0  2  0  0  0  0  0  0
  147.3260  142.2630  151.0510 C   0  0  0  0  0  0  0  0  0  0  0  0
  148.6970  142.2880  151.3270 C   0  0  0  0  0  3  0  0  0  0  0  0
  149.1700  141.9370  152.5920 C   0  0  0  0  0  3  0  0  0  0  0  0
  148.2760  141.5640  153.6010 C   0  0  0  0  0  0  0  0  0  0  0  0
  146.9000  141.5360  153.3500 C   0  0  0  0  0  0  0  0  0  0  0  0
  146.4400  141.8950  152.0740 C   0  0  0  0  0  3  0  0  0  0  0  0
  148.7890  141.2380  154.8260 O   0  0  0  0  0  0  0  0  0  0  0  0
  148.4950  141.6880  155.5930 H   0  0  0  0  0  0  0  0  0  0  0  0
  145.8840  141.1960  154.2030 O   0  0  0  0  0  0  0  0  0  0  0  0
  145.4460  139.8440  154.2200 C   0  0  0  0  0  1  0  0  0  0  0  0
  1  3  1  0  0  0  0
  2  1  2  0  0  0  0
  3 16  1  0  0  0  0
  3  4  1  0  0  0  0
  5  1  1  0  0  0  0
  5  6  1  0  0  0  0
  6  7  1  0  0  0  0
  7  8  1  0  0  0  0
  8  9  1  0  0  0  0
 10  9  1  0  0  0  0
 10 11  1  0  0  0  0
 12 11  1  0  0  0  0
 14 13  1  0  0  0  0
 14 15  2  0  0  0  0
 15 12  1  0  0  0  0
 16 17  1  0  0  0  0
 17 18  2  0  0  0  0
 17 22  1  0  0  0  0
 18 19  1  0  0  0  0
 19 20  2  0  0  0  0
 20 23  1  0  0  0  0
 21 20  1  0  0  0  0
 21 25  1  0  0  0  0
 22 21  2  0  0  0  0
 23 24  1  0  0  0  0
 25 26  1  0  0  0  0
M  END
>  <MODEL>
2

>  <REMARK>
 VINA RESULT:    -6.337      2.173      4.111
 INTER + INTRA:         -12.328
 INTER:                 -10.367
 INTRA:                  -1.961
 UNBOUND:                -1.360
  Name = CHEMBL87171
  15 active torsions:
  status: ('A' for Active; 'I' for Inactive)
    1  A    between atoms: C_1  and  C_2
    2  A    between atoms: C_3  and  C_4
    3  A    between atoms: C_4  and  C_5
    4  A    between atoms: C_5  and  C_6
    5  A    between atoms: C_6  and  C_7
    6  A    between atoms: C_7  and  C_8
    7  A    between atoms: C_8  and  C_9
    8  A    between atoms: C_9  and  C_10
    9  A    between atoms: C_10  and  C_11
   10  A    between atoms: C_11  and  C_12
   11  A    between atoms: N_14  and  C_15
   12  A    between atoms: C_15  and  C_16
   13  A    between atoms: C_19  and  O_20
   14  A    between atoms: C_21  and  O_22
   15  A    between atoms: O_22  and  C_23
                            x       y       z     vdW  Elec       q    Type
                         _______ _______ _______ _____ _____    ______ ____

>  <TORSDO>
F 13

>  <SCORE>
-6.337

>  <RMSD_LB>
2.173

>  <RMSD_UB>
4.111

$$$$
CHEMBL87171
 OpenBabel10172500543D

 26 26  0  0  0  0  0  0  0  0999 V2000
  139.3270  138.4290  154.6890 C   0  0  0  0  0  0  0  0  0  0  0  0
  140.1880  138.7980  155.4800 O   0  0  0  0  0  0  0  0  0  0  0  0
  138.3300  137.5450  155.0250 N   0  0  0  0  0  0  0  0  0  0  0  0
  137.6260  137.3280  154.3720 H   0  0  0  0  0  0  0  0  0  0  0  0
  139.2500  138.9120  153.2510 C   0  0  0  0  0  2  0  0  0  0  0  0
  139.1210  137.7390  152.2800 C   0  0  0  0  0  2  0  0  0  0  0  0
  139.9830  137.9210  151.0310 C   0  0  0  0  0  2  0  0  0  0  0  0
  141.3590  138.4750  151.4060 C   0  0  0  0  0  2  0  0  0  0  0  0
  142.3020  137.3740  151.8890 C   0  0  0  0  0  2  0  0  0  0  0  0
  142.7880  137.6650  153.3090 C   0  0  0  0  0  2  0  0  0  0  0  0
  143.3470  139.0820  153.4380 C   0  0  0  0  0  2  0  0  0  0  0  0
  144.7010  139.1880  152.7340 C   0  0  0  0  0  2  0  0  0  0  0  0
  144.1510  140.4830  149.9970 C   0  0  0  0  0  1  0  0  0  0  0  0
  144.7880  141.1690  151.1610 C   0  0  0  0  0  3  0  0  0  0  0  0
  145.0230  140.6050  152.3570 C   0  0  0  0  0  3  0  0  0  0  0  0
  138.3080  136.9280  156.3320 C   0  0  0  0  0  2  0  0  0  0  0  0
  137.0330  136.1620  156.5520 C   0  0  0  0  0  0  0  0  0  0  0  0
  136.6830  135.7310  157.8360 C   0  0  0  0  0  3  0  0  0  0  0  0
  135.5010  135.0190  158.0440 C   0  0  0  0  0  3  0  0  0  0  0  0
  134.6500  134.7350  156.9710 C   0  0  0  0  0  0  0  0  0  0  0  0
  134.9770  135.1600  155.6780 C   0  0  0  0  0  0  0  0  0  0  0  0
  136.1670  135.8790  155.4860 C   0  0  0  0  0  3  0  0  0  0  0  0
  133.4990  134.0420  157.2280 O   0  0  0  0  0  0  0  0  0  0  0  0
  133.5330  133.1190  157.3860 H   0  0  0  0  0  0  0  0  0  0  0  0
  134.2780  134.9720  154.5160 O   0  0  0  0  0  0  0  0  0  0  0  0
  134.4930  133.7710  153.7900 C   0  0  0  0  0  1  0  0  0  0  0  0
  1  3  1  0  0  0  0
  1  2  2  0  0  0  0
  3 16  1  0  0  0  0
  4  3  1  0  0  0  0
  5  1  1  0  0  0  0
  6  5  1  0  0  0  0
  7  8  1  0  0  0  0
  7  6  1  0  0  0  0
  8  9  1  0  0  0  0
  9 10  1  0  0  0  0
 10 11  1  0  0  0  0
 12 11  1  0  0  0  0
 13 14  1  0  0  0  0
 14 15  2  0  0  0  0
 15 12  1  0  0  0  0
 16 17  1  0  0  0  0
 17 18  1  0  0  0  0
 18 19  2  0  0  0  0
 20 23  1  0  0  0  0
 20 19  1  0  0  0  0
 21 20  2  0  0  0  0
 22 21  1  0  0  0  0
 22 17  2  0  0  0  0
 23 24  1  0  0  0  0
 25 21  1  0  0  0  0
 26 25  1  0  0  0  0
M  END
>  <MODEL>
3

>  <REMARK>
 VINA RESULT:    -6.149      7.596     10.423
 INTER + INTRA:         -12.002
 INTER:                 -10.447
 INTRA:                  -1.554
 UNBOUND:                -1.360
  Name = CHEMBL87171
  15 active torsions:
  status: ('A' for Active; 'I' for Inactive)
    1  A    between atoms: C_1  and  C_2
    2  A    between atoms: C_3  and  C_4
    3  A    between atoms: C_4  and  C_5
    4  A    between atoms: C_5  and  C_6
    5  A    between atoms: C_6  and  C_7
    6  A    between atoms: C_7  and  C_8
    7  A    between atoms: C_8  and  C_9
    8  A    between atoms: C_9  and  C_10
    9  A    between atoms: C_10  and  C_11
   10  A    between atoms: C_11  and  C_12
   11  A    between atoms: N_14  and  C_15
   12  A    between atoms: C_15  and  C_16
   13  A    between atoms: C_19  and  O_20
   14  A    between atoms: C_21  and  O_22
   15  A    between atoms: O_22  and  C_23
                            x       y       z     vdW  Elec       q    Type
                         _______ _______ _______ _____ _____    ______ ____

>  <TORSDO>
F 13

>  <SCORE>
-6.149

>  <RMSD_LB>
7.596

>  <RMSD_UB>
10.423

$$$$
CHEMBL87171
 OpenBabel10172500543D

 26 26  0  0  0  0  0  0  0  0999 V2000
  143.8240  139.3930  149.9220 C   0  0  0  0  0  0  0  0  0  0  0  0
  143.2400  139.1010  148.8840 O   0  0  0  0  0  0  0  0  0  0  0  0
  143.8180  138.5870  151.0360 N   0  0  0  0  0  0  0  0  0  0  0  0
  144.3540  138.8360  151.8240 H   0  0  0  0  0  0  0  0  0  0  0  0
  144.6320  140.6670  150.0980 C   0  0  0  0  0  2  0  0  0  0  0  0
  145.1490  140.7980  151.5310 C   0  0  0  0  0  2  0  0  0  0  0  0
  145.5090  142.2410  151.8880 C   0  0  0  0  0  2  0  0  0  0  0  0
  146.4900  142.2720  153.0620 C   0  0  0  0  0  2  0  0  0  0  0  0
  147.8860  141.8060  152.6490 C   0  0  0  0  0  2  0  0  0  0  0  0
  148.7820  141.6340  153.8750 C   0  0  0  0  0  2  0  0  0  0  0  0
  148.5180  140.3090  154.5900 C   0  0  0  0  0  2  0  0  0  0  0  0
  148.3400  139.1810  153.5730 C   0  0  0  0  0  2  0  0  0  0  0  0
  145.4540  138.7340  154.5420 C   0  0  0  0  0  1  0  0  0  0  0  0
  146.5600  137.7350  154.6440 C   0  0  0  0  0  3  0  0  0  0  0  0
  147.8180  137.9290  154.2160 C   0  0  0  0  0  3  0  0  0  0  0  0
  143.0280  137.3770  151.0610 C   0  0  0  0  0  2  0  0  0  0  0  0
  141.6980  137.6080  151.7240 C   0  0  0  0  0  0  0  0  0  0  0  0
  141.6360  137.9480  153.0790 C   0  0  0  0  0  3  0  0  0  0  0  0
  140.4040  138.1610  153.6980 C   0  0  0  0  0  3  0  0  0  0  0  0
  139.2170  138.0440  152.9670 C   0  0  0  0  0  0  0  0  0  0  0  0
  139.2550  137.7100  151.6080 C   0  0  0  0  0  0  0  0  0  0  0  0
  140.5020  137.5020  151.0000 C   0  0  0  0  0  3  0  0  0  0  0  0
  138.0360  138.2720  153.6170 O   0  0  0  0  0  0  0  0  0  0  0  0
  137.9880  138.1800  154.5480 H   0  0  0  0  0  0  0  0  0  0  0  0
  138.2080  137.5460  150.7410 O   0  0  0  0  0  0  0  0  0  0  0  0
  138.0070  138.5310  149.7380 C   0  0  0  0  0  1  0  0  0  0  0  0
  1  5  1  0  0  0  0
  1  3  1  0  0  0  0
  2  1  2  0  0  0  0
  3 16  1  0  0  0  0
  3  4  1  0  0  0  0
  5  6  1  0  0  0  0
  6  7  1  0  0  0  0
  7  8  1  0  0  0  0
  9  8  1  0  0  0  0
  9 10  1  0  0  0  0
 10 11  1  0  0  0  0
 12 15  1  0  0  0  0
 12 11  1  0  0  0  0
 13 14  1  0  0  0  0
 15 14  2  0  0  0  0
 16 17  1  0  0  0  0
 17 18  1  0  0  0  0
 18 19  2  0  0  0  0
 20 23  1  0  0  0  0
 20 19  1  0  0  0  0
 21 20  2  0  0  0  0
 22 21  1  0  0  0  0
 22 17  2  0  0  0  0
 23 24  1  0  0  0  0
 25 21  1  0  0  0  0
 26 25  1  0  0  0  0
M  END
>  <MODEL>
4

>  <REMARK>
 VINA RESULT:    -6.142      3.628      6.526
 INTER + INTRA:         -11.990
 INTER:                 -10.417
 INTRA:                  -1.573
 UNBOUND:                -1.360
  Name = CHEMBL87171
  15 active torsions:
  status: ('A' for Active; 'I' for Inactive)
    1  A    between atoms: C_1  and  C_2
    2  A    between atoms: C_3  and  C_4
    3  A    between atoms: C_4  and  C_5
    4  A    between atoms: C_5  and  C_6
    5  A    between atoms: C_6  and  C_7
    6  A    between atoms: C_7  and  C_8
    7  A    between atoms: C_8  and  C_9
    8  A    between atoms: C_9  and  C_10
    9  A    between atoms: C_10  and  C_11
   10  A    between atoms: C_11  and  C_12
   11  A    between atoms: N_14  and  C_15
   12  A    between atoms: C_15  and  C_16
   13  A    between atoms: C_19  and  O_20
   14  A    between atoms: C_21  and  O_22
   15  A    between atoms: O_22  and  C_23
                            x       y       z     vdW  Elec       q    Type
                         _______ _______ _______ _____ _____    ______ ____

>  <TORSDO>
F 13

>  <SCORE>
-6.142

>  <RMSD_LB>
3.628

>  <RMSD_UB>
6.526

$$$$
CHEMBL87171
 OpenBabel10172500543D

 26 26  0  0  0  0  0  0  0  0999 V2000
  139.0010  138.2160  155.4730 C   0  0  0  0  0  0  0  0  0  0  0  0
  139.6970  138.1090  156.4760 O   0  0  0  0  0  0  0  0  0  0  0  0
  139.5210  138.2520  154.2010 N   0  0  0  0  0  0  0  0  0  0  0  0
  138.9160  138.2750  153.4240 H   0  0  0  0  0  0  0  0  0  0  0  0
  137.4850  138.3050  155.5110 C   0  0  0  0  0  2  0  0  0  0  0  0
  136.8830  137.1450  156.3030 C   0  0  0  0  0  2  0  0  0  0  0  0
  137.0060  135.8120  155.5640 C   0  0  0  0  0  2  0  0  0  0  0  0
  136.1140  135.8050  154.3210 C   0  0  0  0  0  2  0  0  0  0  0  0
  134.7860  135.0950  154.5800 C   0  0  0  0  0  2  0  0  0  0  0  0
  134.4200  134.1900  153.4040 C   0  0  0  0  0  2  0  0  0  0  0  0
  135.5810  134.0400  152.4210 C   0  0  0  0  0  2  0  0  0  0  0  0
  135.0650  134.0480  150.9810 C   0  0  0  0  0  2  0  0  0  0  0  0
  132.9380  134.6490  148.8410 C   0  0  0  0  0  1  0  0  0  0  0  0
  132.7970  133.6420  149.9350 C   0  0  0  0  0  3  0  0  0  0  0  0
  133.7280  133.3760  150.8650 C   0  0  0  0  0  3  0  0  0  0  0  0
  140.9510  138.2590  153.9940 C   0  0  0  0  0  2  0  0  0  0  0  0
  141.3070  137.7580  152.6220 C   0  0  0  0  0  0  0  0  0  0  0  0
  142.6370  137.4690  152.3000 C   0  0  0  0  0  3  0  0  0  0  0  0
  142.9700  137.0050  151.0270 C   0  0  0  0  0  3  0  0  0  0  0  0
  141.9760  136.8170  150.0610 C   0  0  0  0  0  0  0  0  0  0  0  0
  140.6380  137.0940  150.3620 C   0  0  0  0  0  0  0  0  0  0  0  0
  140.3180  137.5570  151.6480 C   0  0  0  0  0  3  0  0  0  0  0  0
  142.3540  136.3520  148.8320 O   0  0  0  0  0  0  0  0  0  0  0  0
  141.8700  136.5980  148.0680 H   0  0  0  0  0  0  0  0  0  0  0  0
  139.5400  136.9780  149.5530 O   0  0  0  0  0  0  0  0  0  0  0  0
  139.1490  138.1070  148.7850 C   0  0  0  0  0  1  0  0  0  0  0  0
  1  5  1  0  0  0  0
  1  2  2  0  0  0  0
  3  1  1  0  0  0  0
  4  3  1  0  0  0  0
  5  6  1  0  0  0  0
  7  6  1  0  0  0  0
  8  9  1  0  0  0  0
  8  7  1  0  0  0  0
 10  9  1  0  0  0  0
 11 10  1  0  0  0  0
 12 11  1  0  0  0  0
 13 14  1  0  0  0  0
 14 15  2  0  0  0  0
 15 12  1  0  0  0  0
 16  3  1  0  0  0  0
 17 16  1  0  0  0  0
 18 17  1  0  0  0  0
 19 18  2  0  0  0  0
 20 21  2  0  0  0  0
 20 19  1  0  0  0  0
 21 22  1  0  0  0  0
 22 17  2  0  0  0  0
 23 20  1  0  0  0  0
 24 23  1  0  0  0  0
 25 21  1  0  0  0  0
 26 25  1  0  0  0  0
M  END
>  <MODEL>
5

>  <REMARK>
 VINA RESULT:    -6.076      7.447     10.921
 INTER + INTRA:         -11.877
 INTER:                 -10.712
 INTRA:                  -1.165
 UNBOUND:                -1.360
  Name = CHEMBL87171
  15 active torsions:
  status: ('A' for Active; 'I' for Inactive)
    1  A    between atoms: C_1  and  C_2
    2  A    between atoms: C_3  and  C_4
    3  A    between atoms: C_4  and  C_5
    4  A    between atoms: C_5  and  C_6
    5  A    between atoms: C_6  and  C_7
    6  A    between atoms: C_7  and  C_8
    7  A    between atoms: C_8  and  C_9
    8  A    between atoms: C_9  and  C_10
    9  A    between atoms: C_10  and  C_11
   10  A    between atoms: C_11  and  C_12
   11  A    between atoms: N_14  and  C_15
   12  A    between atoms: C_15  and  C_16
   13  A    between atoms: C_19  and  O_20
   14  A    between atoms: C_21  and  O_22
   15  A    between atoms: O_22  and  C_23
                            x       y       z     vdW  Elec       q    Type
                         _______ _______ _______ _____ _____    ______ ____

>  <TORSDO>
F 13

>  <SCORE>
-6.076

>  <RMSD_LB>
7.447

>  <RMSD_UB>
10.921

$$$$
CHEMBL87171
 OpenBabel10172500543D

 26 26  0  0  0  0  0  0  0  0999 V2000
  142.1180  136.9560  149.3140 C   0  0  0  0  0  0  0  0  0  0  0  0
  142.2220  135.7730  149.6200 O   0  0  0  0  0  0  0  0  0  0  0  0
  141.3360  137.8440  150.0140 N   0  0  0  0  0  0  0  0  0  0  0  0
  141.3350  138.7980  149.7660 H   0  0  0  0  0  0  0  0  0  0  0  0
  142.8480  137.5840  148.1400 C   0  0  0  0  0  2  0  0  0  0  0  0
  142.6190  139.0950  148.0920 C   0  0  0  0  0  2  0  0  0  0  0  0
  143.9180  139.8850  148.2430 C   0  0  0  0  0  2  0  0  0  0  0  0
  144.0720  140.3920  149.6790 C   0  0  0  0  0  2  0  0  0  0  0  0
  145.5400  140.4710  150.0980 C   0  0  0  0  0  2  0  0  0  0  0  0
  146.0230  141.9210  150.0970 C   0  0  0  0  0  2  0  0  0  0  0  0
  145.7700  142.6060  151.4390 C   0  0  0  0  0  2  0  0  0  0  0  0
  145.7360  141.5730  152.5670 C   0  0  0  0  0  2  0  0  0  0  0  0
  148.7580  141.3320  153.0930 C   0  0  0  0  0  1  0  0  0  0  0  0
  147.7690  141.9530  154.0250 C   0  0  0  0  0  3  0  0  0  0  0  0
  146.4510  142.0630  153.7920 C   0  0  0  0  0  3  0  0  0  0  0  0
  140.5120  137.3890  151.1100 C   0  0  0  0  0  2  0  0  0  0  0  0
  140.9950  137.9430  152.4220 C   0  0  0  0  0  0  0  0  0  0  0  0
  142.3110  138.3990  152.5530 C   0  0  0  0  0  3  0  0  0  0  0  0
  142.7630  138.9130  153.7690 C   0  0  0  0  0  3  0  0  0  0  0  0
  141.9010  138.9850  154.8690 C   0  0  0  0  0  0  0  0  0  0  0  0
  140.5790  138.5400  154.7600 C   0  0  0  0  0  0  0  0  0  0  0  0
  140.1390  138.0290  153.5290 C   0  0  0  0  0  3  0  0  0  0  0  0
  142.3900  139.5040  156.0350 O   0  0  0  0  0  0  0  0  0  0  0  0
  141.8000  139.7850  156.7070 H   0  0  0  0  0  0  0  0  0  0  0  0
  139.6020  138.5260  155.7190 O   0  0  0  0  0  0  0  0  0  0  0  0
  139.5410  137.4140  156.6000 C   0  0  0  0  0  1  0  0  0  0  0  0
  1  2  2  0  0  0  0
  1  3  1  0  0  0  0
  3 16  1  0  0  0  0
  4  3  1  0  0  0  0
  5  1  1  0  0  0  0
  6  5  1  0  0  0  0
  6  7  1  0  0  0  0
  7  8  1  0  0  0  0
  8  9  1  0  0  0  0
 10  9  1  0  0  0  0
 10 11  1  0  0  0  0
 11 12  1  0  0  0  0
 12 15  1  0  0  0  0
 13 14  1  0  0  0  0
 15 14  2  0  0  0  0
 16 17  1  0  0  0  0
 17 18  2  0  0  0  0
 17 22  1  0  0  0  0
 18 19  1  0  0  0  0
 19 20  2  0  0  0  0
 20 23  1  0  0  0  0
 21 20  1  0  0  0  0
 21 25  1  0  0  0  0
 22 21  2  0  0  0  0
 23 24  1  0  0  0  0
 25 26  1  0  0  0  0
M  END
>  <MODEL>
6

>  <REMARK>
 VINA RESULT:    -5.906      3.471      5.953
 INTER + INTRA:         -11.581
 INTER:                 -10.071
 INTRA:                  -1.511
 UNBOUND:                -1.360
  Name = CHEMBL87171
  15 active torsions:
  status: ('A' for Active; 'I' for Inactive)
    1  A    between atoms: C_1  and  C_2
    2  A    between atoms: C_3  and  C_4
    3  A    between atoms: C_4  and  C_5
    4  A    between atoms: C_5  and  C_6
    5  A    between atoms: C_6  and  C_7
    6  A    between atoms: C_7  and  C_8
    7  A    between atoms: C_8  and  C_9
    8  A    between atoms: C_9  and  C_10
    9  A    between atoms: C_10  and  C_11
   10  A    between atoms: C_11  and  C_12
   11  A    between atoms: N_14  and  C_15
   12  A    between atoms: C_15  and  C_16
   13  A    between atoms: C_19  and  O_20
   14  A    between atoms: C_21  and  O_22
   15  A    between atoms: O_22  and  C_23
                            x       y       z     vdW  Elec       q    Type
                         _______ _______ _______ _____ _____    ______ ____

>  <TORSDO>
F 13

>  <SCORE>
-5.906

>  <RMSD_LB>
3.471

>  <RMSD_UB>
5.953

$$$$
CHEMBL87171
 OpenBabel10172500543D

 26 26  0  0  0  0  0  0  0  0999 V2000
  138.7710  134.8610  147.7590 C   0  0  0  0  0  0  0  0  0  0  0  0
  139.1740  134.0040  148.5370 O   0  0  0  0  0  0  0  0  0  0  0  0
  139.4020  136.0700  147.5840 N   0  0  0  0  0  0  0  0  0  0  0  0
  139.0750  136.6990  146.9010 H   0  0  0  0  0  0  0  0  0  0  0  0
  137.5390  134.6870  146.8880 C   0  0  0  0  0  2  0  0  0  0  0  0
  136.5930  135.8800  147.0250 C   0  0  0  0  0  2  0  0  0  0  0  0
  135.7280  135.7920  148.2820 C   0  0  0  0  0  2  0  0  0  0  0  0
  136.1670  136.8380  149.3090 C   0  0  0  0  0  2  0  0  0  0  0  0
  136.7990  136.1930  150.5420 C   0  0  0  0  0  2  0  0  0  0  0  0
  136.3200  134.7500  150.7010 C   0  0  0  0  0  2  0  0  0  0  0  0
  135.9320  134.4360  152.1450 C   0  0  0  0  0  2  0  0  0  0  0  0
  135.9070  135.7170  152.9810 C   0  0  0  0  0  2  0  0  0  0  0  0
  137.7010  137.1420  155.0350 C   0  0  0  0  0  1  0  0  0  0  0  0
  136.7430  136.0400  155.3480 C   0  0  0  0  0  3  0  0  0  0  0  0
  135.9560  135.4220  154.4530 C   0  0  0  0  0  3  0  0  0  0  0  0
  140.5420  136.4250  148.3980 C   0  0  0  0  0  2  0  0  0  0  0  0
  140.1560  137.3850  149.4890 C   0  0  0  0  0  0  0  0  0  0  0  0
  140.4370  137.0830  150.8250 C   0  0  0  0  0  3  0  0  0  0  0  0
  140.0790  137.9710  151.8400 C   0  0  0  0  0  3  0  0  0  0  0  0
  139.4410  139.1770  151.5310 C   0  0  0  0  0  0  0  0  0  0  0  0
  139.1540  139.5030  150.2000 C   0  0  0  0  0  0  0  0  0  0  0  0
  139.5250  138.6010  149.1910 C   0  0  0  0  0  3  0  0  0  0  0  0
  139.1190  140.0170  152.5610 O   0  0  0  0  0  0  0  0  0  0  0  0
  138.9300  140.9180  152.3890 H   0  0  0  0  0  0  0  0  0  0  0  0
  138.5370  140.6220  149.7100 O   0  0  0  0  0  0  0  0  0  0  0  0
  137.3580  140.4550  148.9370 C   0  0  0  0  0  1  0  0  0  0  0  0
  1  2  2  0  0  0  0
  3  1  1  0  0  0  0
  3 16  1  0  0  0  0
  4  3  1  0  0  0  0
  5  6  1  0  0  0  0
  5  1  1  0  0  0  0
  6  7  1  0  0  0  0
  7  8  1  0  0  0  0
  8  9  1  0  0  0  0
  9 10  1  0  0  0  0
 10 11  1  0  0  0  0
 11 12  1  0  0  0  0
 12 15  1  0  0  0  0
 13 14  1  0  0  0  0
 15 14  2  0  0  0  0
 16 17  1  0  0  0  0
 17 18  1  0  0  0  0
 18 19  2  0  0  0  0
 20 19  1  0  0  0  0
 20 23  1  0  0  0  0
 21 20  2  0  0  0  0
 22 17  2  0  0  0  0
 22 21  1  0  0  0  0
 24 23  1  0  0  0  0
 25 21  1  0  0  0  0
 26 25  1  0  0  0  0
M  END
>  <MODEL>
7

>  <REMARK>
 VINA RESULT:    -5.868      7.767     10.045
 INTER + INTRA:         -11.517
 INTER:                  -9.114
 INTRA:                  -2.403
 UNBOUND:                -1.360
  Name = CHEMBL87171
  15 active torsions:
  status: ('A' for Active; 'I' for Inactive)
    1  A    between atoms: C_1  and  C_2
    2  A    between atoms: C_3  and  C_4
    3  A    between atoms: C_4  and  C_5
    4  A    between atoms: C_5  and  C_6
    5  A    between atoms: C_6  and  C_7
    6  A    between atoms: C_7  and  C_8
    7  A    between atoms: C_8  and  C_9
    8  A    between atoms: C_9  and  C_10
    9  A    between atoms: C_10  and  C_11
   10  A    between atoms: C_11  and  C_12
   11  A    between atoms: N_14  and  C_15
   12  A    between atoms: C_15  and  C_16
   13  A    between atoms: C_19  and  O_20
   14  A    between atoms: C_21  and  O_22
   15  A    between atoms: O_22  and  C_23
                            x       y       z     vdW  Elec       q    Type
                         _______ _______ _______ _____ _____    ______ ____

>  <TORSDO>
F 13

>  <SCORE>
-5.868

>  <RMSD_LB>
7.767

>  <RMSD_UB>
10.045

$$$$
CHEMBL87171
 OpenBabel10172500543D

 26 26  0  0  0  0  0  0  0  0999 V2000
  140.9420  138.5400  154.1130 C   0  0  0  0  0  0  0  0  0  0  0  0
  141.2430  139.3510  154.9810 O   0  0  0  0  0  0  0  0  0  0  0  0
  139.6400  138.2560  153.7730 N   0  0  0  0  0  0  0  0  0  0  0  0
  139.4520  137.6430  153.0250 H   0  0  0  0  0  0  0  0  0  0  0  0
  141.9650  137.7650  153.3000 C   0  0  0  0  0  2  0  0  0  0  0  0
  143.2920  138.5190  153.2190 C   0  0  0  0  0  2  0  0  0  0  0  0
  143.3730  139.4220  151.9880 C   0  0  0  0  0  2  0  0  0  0  0  0
  144.4900  140.4550  152.1540 C   0  0  0  0  0  2  0  0  0  0  0  0
  144.9860  140.9750  150.8060 C   0  0  0  0  0  2  0  0  0  0  0  0
  146.4790  140.6940  150.6360 C   0  0  0  0  0  2  0  0  0  0  0  0
  147.3230  141.9490  150.8590 C   0  0  0  0  0  2  0  0  0  0  0  0
  147.3620  142.3090  152.3450 C   0  0  0  0  0  2  0  0  0  0  0  0
  147.4090  139.9990  154.3770 C   0  0  0  0  0  1  0  0  0  0  0  0
  148.6080  140.7570  153.9080 C   0  0  0  0  0  3  0  0  0  0  0  0
  148.5870  141.7620  153.0180 C   0  0  0  0  0  3  0  0  0  0  0  0
  138.5460  138.8470  154.5070 C   0  0  0  0  0  2  0  0  0  0  0  0
  137.7170  137.7960  155.1910 C   0  0  0  0  0  0  0  0  0  0  0  0
  137.6230  137.7700  156.5870 C   0  0  0  0  0  3  0  0  0  0  0  0
  136.8560  136.7950  157.2250 C   0  0  0  0  0  3  0  0  0  0  0  0
  136.1650  135.8370  156.4760 C   0  0  0  0  0  0  0  0  0  0  0  0
  136.2390  135.8460  155.0780 C   0  0  0  0  0  0  0  0  0  0  0  0
  137.0130  136.8360  154.4510 C   0  0  0  0  0  3  0  0  0  0  0  0
  135.4200  134.9090  157.1490 O   0  0  0  0  0  0  0  0  0  0  0  0
  135.6560  134.6620  158.0210 H   0  0  0  0  0  0  0  0  0  0  0  0
  135.6440  134.9950  154.1870 O   0  0  0  0  0  0  0  0  0  0  0  0
  134.3040  135.2600  153.7970 C   0  0  0  0  0  1  0  0  0  0  0  0
  1  2  2  0  0  0  0
  3  1  1  0  0  0  0
  3 16  1  0  0  0  0
  4  3  1  0  0  0  0
  5  1  1  0  0  0  0
  6  5  1  0  0  0  0
  7  8  1  0  0  0  0
  7  6  1  0  0  0  0
  9  8  1  0  0  0  0
 10  9  1  0  0  0  0
 10 11  1  0  0  0  0
 11 12  1  0  0  0  0
 12 15  1  0  0  0  0
 14 13  1  0  0  0  0
 15 14  2  0  0  0  0
 16 17  1  0  0  0  0
 17 18  1  0  0  0  0
 18 19  2  0  0  0  0
 20 23  1  0  0  0  0
 20 19  1  0  0  0  0
 21 20  2  0  0  0  0
 22 21  1  0  0  0  0
 22 17  2  0  0  0  0
 23 24  1  0  0  0  0
 25 21  1  0  0  0  0
 26 25  1  0  0  0  0
M  END
>  <MODEL>
8

>  <REMARK>
 VINA RESULT:    -5.573      6.371      9.055
 INTER + INTRA:         -11.006
 INTER:                  -9.998
 INTRA:                  -1.007
 UNBOUND:                -1.360
  Name = CHEMBL87171
  15 active torsions:
  status: ('A' for Active; 'I' for Inactive)
    1  A    between atoms: C_1  and  C_2
    2  A    between atoms: C_3  and  C_4
    3  A    between atoms: C_4  and  C_5
    4  A    between atoms: C_5  and  C_6
    5  A    between atoms: C_6  and  C_7
    6  A    between atoms: C_7  and  C_8
    7  A    between atoms: C_8  and  C_9
    8  A    between atoms: C_9  and  C_10
    9  A    between atoms: C_10  and  C_11
   10  A    between atoms: C_11  and  C_12
   11  A    between atoms: N_14  and  C_15
   12  A    between atoms: C_15  and  C_16
   13  A    between atoms: C_19  and  O_20
   14  A    between atoms: C_21  and  O_22
   15  A    between atoms: O_22  and  C_23
                            x       y       z     vdW  Elec       q    Type
                         _______ _______ _______ _____ _____    ______ ____

>  <TORSDO>
F 13

>  <SCORE>
-5.573

>  <RMSD_LB>
6.371

>  <RMSD_UB>
9.055

$$$$
CHEMBL87171
 OpenBabel10172500543D

 26 26  0  0  0  0  0  0  0  0999 V2000
  138.6320  136.8320  149.8140 C   0  0  0  0  0  0  0  0  0  0  0  0
  138.7430  135.6700  149.4370 O   0  0  0  0  0  0  0  0  0  0  0  0
  139.7130  137.6470  150.0560 N   0  0  0  0  0  0  0  0  0  0  0  0
  139.5700  138.5910  150.2960 H   0  0  0  0  0  0  0  0  0  0  0  0
  137.2940  137.5130  150.0430 C   0  0  0  0  0  2  0  0  0  0  0  0
  136.1930  136.4900  150.3170 C   0  0  0  0  0  2  0  0  0  0  0  0
  136.0350  136.1910  151.8080 C   0  0  0  0  0  2  0  0  0  0  0  0
  134.8750  135.2200  152.0390 C   0  0  0  0  0  2  0  0  0  0  0  0
  135.0940  133.8910  151.3180 C   0  0  0  0  0  2  0  0  0  0  0  0
  133.7960  133.4090  150.6690 C   0  0  0  0  0  2  0  0  0  0  0  0
  134.0540  132.7090  149.3350 C   0  0  0  0  0  2  0  0  0  0  0  0
  133.1520  133.2910  148.2450 C   0  0  0  0  0  2  0  0  0  0  0  0
  134.3740  135.3850  146.3510 C   0  0  0  0  0  1  0  0  0  0  0  0
  133.5450  135.6940  147.5550 C   0  0  0  0  0  3  0  0  0  0  0  0
  133.0070  134.7790  148.3780 C   0  0  0  0  0  3  0  0  0  0  0  0
  141.0580  137.1260  149.9640 C   0  0  0  0  0  2  0  0  0  0  0  0
  141.8430  137.4200  151.2120 C   0  0  0  0  0  0  0  0  0  0  0  0
  143.2010  137.0920  151.2830 C   0  0  0  0  0  3  0  0  0  0  0  0
  143.9330  137.3620  152.4400 C   0  0  0  0  0  3  0  0  0  0  0  0
  143.3170  137.9720  153.5390 C   0  0  0  0  0  0  0  0  0  0  0  0
  141.9610  138.3140  153.4880 C   0  0  0  0  0  0  0  0  0  0  0  0
  141.2400  138.0390  152.3160 C   0  0  0  0  0  3  0  0  0  0  0  0
  144.0800  138.2230  154.6450 O   0  0  0  0  0  0  0  0  0  0  0  0
  144.7240  137.6010  154.9220 H   0  0  0  0  0  0  0  0  0  0  0  0
  141.1940  138.9040  154.4560 O   0  0  0  0  0  0  0  0  0  0  0  0
  140.4670  138.0650  155.3420 C   0  0  0  0  0  1  0  0  0  0  0  0
  1  5  1  0  0  0  0
  1  3  1  0  0  0  0
  2  1  2  0  0  0  0
  3  4  1  0  0  0  0
  5  6  1  0  0  0  0
  6  7  1  0  0  0  0
  7  8  1  0  0  0  0
  9  8  1  0  0  0  0
 10  9  1  0  0  0  0
 11 10  1  0  0  0  0
 12 15  1  0  0  0  0
 12 11  1  0  0  0  0
 13 14  1  0  0  0  0
 14 15  2  0  0  0  0
 16  3  1  0  0  0  0
 16 17  1  0  0  0  0
 17 18  2  0  0  0  0
 17 22  1  0  0  0  0
 18 19  1  0  0  0  0
 19 20  2  0  0  0  0
 20 23  1  0  0  0  0
 21 20  1  0  0  0  0
 21 25  1  0  0  0  0
 22 21  2  0  0  0  0
 23 24  1  0  0  0  0
 25 26  1  0  0  0  0
M  END
>  <MODEL>
9

>  <REMARK>
 VINA RESULT:    -5.560      7.456     10.329
 INTER + INTRA:         -10.984
 INTER:                  -9.624
 INTRA:                  -1.360
 UNBOUND:                -1.360
  Name = CHEMBL87171
  15 active torsions:
  status: ('A' for Active; 'I' for Inactive)
    1  A    between atoms: C_1  and  C_2
    2  A    between atoms: C_3  and  C_4
    3  A    between atoms: C_4  and  C_5
    4  A    between atoms: C_5  and  C_6
    5  A    between atoms: C_6  and  C_7
    6  A    between atoms: C_7  and  C_8
    7  A    between atoms: C_8  and  C_9
    8  A    between atoms: C_9  and  C_10
    9  A    between atoms: C_10  and  C_11
   10  A    between atoms: C_11  and  C_12
   11  A    between atoms: N_14  and  C_15
   12  A    between atoms: C_15  and  C_16
   13  A    between atoms: C_19  and  O_20
   14  A    between atoms: C_21  and  O_22
   15  A    between atoms: O_22  and  C_23
                            x       y       z     vdW  Elec       q    Type
                         _______ _______ _______ _____ _____    ______ ____

>  <TORSDO>
F 13

>  <SCORE>
-5.560

>  <RMSD_LB>
7.456

>  <RMSD_UB>
10.329

$$$$
