CHEMBL77233
 OpenBabel10172500443D

 21 21  0  0  0  0  0  0  0  0999 V2000
  148.3190  140.4010  154.3200 C   0  0  0  0  0  0  0  0  0  0  0  0
  149.0890  139.4750  154.0970 O   0  0  0  0  0  0  0  0  0  0  0  0
  147.0830  140.2310  154.9040 N   0  0  0  0  0  0  0  0  0  0  0  0
  146.5020  141.0110  155.0510 H   0  0  0  0  0  0  0  0  0  0  0  0
  148.6470  141.8470  153.9990 C   0  0  0  0  0  2  0  0  0  0  0  0
  149.3430  141.9540  152.6440 C   0  0  0  0  0  2  0  0  0  0  0  0
  148.4600  141.4530  151.5040 C   0  0  0  0  0  2  0  0  0  0  0  0
  147.9900  142.6260  150.6430 C   0  0  0  0  0  2  0  0  0  0  0  0
  146.5750  142.4060  150.1150 C   0  0  0  0  0  2  0  0  0  0  0  0
  145.5540  142.4930  151.2490 C   0  0  0  0  0  2  0  0  0  0  0  0
  144.6170  140.4220  150.1710 C   0  0  0  0  0  1  0  0  0  0  0  0
  144.8680  141.1500  151.4820 C   0  0  0  0  0  2  0  0  0  0  0  0
  146.6320  138.9160  155.3040 C   0  0  0  0  0  2  0  0  0  0  0  0
  145.4170  138.4710  154.5300 C   0  0  0  0  0  0  0  0  0  0  0  0
  144.2190  139.1960  154.6240 C   0  0  0  0  0  3  0  0  0  0  0  0
  143.1040  138.8500  153.8520 C   0  0  0  0  0  3  0  0  0  0  0  0
  143.1700  137.7730  152.9700 C   0  0  0  0  0  0  0  0  0  0  0  0
  144.3600  137.0480  152.8710 C   0  0  0  0  0  3  0  0  0  0  0  0
  145.4760  137.3910  153.6440 C   0  0  0  0  0  3  0  0  0  0  0  0
  142.1590  137.3340  152.1590 O   0  0  0  0  0  0  0  0  0  0  0  0
  140.8400  137.7470  152.4920 C   0  0  0  0  0  1  0  0  0  0  0  0
  1  3  1  0  0  0  0
  2  1  2  0  0  0  0
  3  4  1  0  0  0  0
  3 13  1  0  0  0  0
  5  1  1  0  0  0  0
  6  5  1  0  0  0  0
  7  6  1  0  0  0  0
  8  7  1  0  0  0  0
  9  8  1  0  0  0  0
  9 10  1  0  0  0  0
 10 12  1  0  0  0  0
 11 12  1  0  0  0  0
 14 15  1  0  0  0  0
 14 13  1  0  0  0  0
 16 15  2  0  0  0  0
 17 16  1  0  0  0  0
 18 17  2  0  0  0  0
 18 19  1  0  0  0  0
 19 14  2  0  0  0  0
 20 21  1  0  0  0  0
 20 17  1  0  0  0  0
M  END
>  <MODEL>
1

>  <REMARK>
 VINA RESULT:    -6.716      0.000      0.000
 INTER + INTRA:         -11.254
 INTER:                  -9.885
 INTRA:                  -1.369
 UNBOUND:                -0.611
  Name = CHEMBL77233
  12 active torsions:
  status: ('A' for Active; 'I' for Inactive)
    1  A    between atoms: C_1  and  C_2
    2  A    between atoms: C_2  and  C_3
    3  A    between atoms: C_3  and  C_4
    4  A    between atoms: C_4  and  C_5
    5  A    between atoms: C_5  and  C_6
    6  A    between atoms: C_6  and  C_7
    7  A    between atoms: C_7  and  C_8
    8  A    between atoms: C_8  and  C_9
    9  A    between atoms: N_11  and  C_12
   10  A    between atoms: C_12  and  C_13
   11  A    between atoms: C_16  and  O_17
   12  A    between atoms: O_17  and  C_18
                            x       y       z     vdW  Elec       q    Type
                         _______ _______ _______ _____ _____    ______ ____

>  <TORSDO>
F 10

>  <SCORE>
-6.716

>  <RMSD_LB>
0.000

>  <RMSD_UB>
0.000

$$$$
CHEMBL77233
 OpenBabel10172500443D

 21 21  0  0  0  0  0  0  0  0999 V2000
  147.6320  139.6530  154.8640 C   0  0  0  0  0  0  0  0  0  0  0  0
  148.8140  139.9590  154.7670 O   0  0  0  0  0  0  0  0  0  0  0  0
  146.6020  140.5390  154.6380 N   0  0  0  0  0  0  0  0  0  0  0  0
  145.6700  140.2400  154.7410 H   0  0  0  0  0  0  0  0  0  0  0  0
  147.1650  138.2550  155.2240 C   0  0  0  0  0  2  0  0  0  0  0  0
  146.4780  137.5930  154.0330 C   0  0  0  0  0  2  0  0  0  0  0  0
  147.2700  137.7710  152.7410 C   0  0  0  0  0  2  0  0  0  0  0  0
  146.3810  138.3690  151.6510 C   0  0  0  0  0  2  0  0  0  0  0  0
  144.9170  137.9810  151.8400 C   0  0  0  0  0  2  0  0  0  0  0  0
  144.0130  139.2080  151.7340 C   0  0  0  0  0  2  0  0  0  0  0  0
  142.7630  137.7500  153.3590 C   0  0  0  0  0  1  0  0  0  0  0  0
  142.8480  139.1250  152.7170 C   0  0  0  0  0  2  0  0  0  0  0  0
  146.8770  141.9060  154.2510 C   0  0  0  0  0  2  0  0  0  0  0  0
  146.8520  142.0900  152.7550 C   0  0  0  0  0  0  0  0  0  0  0  0
  148.0350  141.9610  152.0110 C   0  0  0  0  0  3  0  0  0  0  0  0
  148.0210  142.0460  150.6140 C   0  0  0  0  0  3  0  0  0  0  0  0
  146.8220  142.2600  149.9370 C   0  0  0  0  0  0  0  0  0  0  0  0
  145.6410  142.3890  150.6720 C   0  0  0  0  0  3  0  0  0  0  0  0
  145.6520  142.3060  152.0700 C   0  0  0  0  0  3  0  0  0  0  0  0
  146.6700  142.3590  148.5810 O   0  0  0  0  0  0  0  0  0  0  0  0
  146.3270  141.1690  147.8830 C   0  0  0  0  0  1  0  0  0  0  0  0
  1  5  1  0  0  0  0
  2  1  2  0  0  0  0
  3  4  1  0  0  0  0
  3  1  1  0  0  0  0
  6  5  1  0  0  0  0
  7  6  1  0  0  0  0
  8  9  1  0  0  0  0
  8  7  1  0  0  0  0
 10  9  1  0  0  0  0
 10 12  1  0  0  0  0
 12 11  1  0  0  0  0
 13  3  1  0  0  0  0
 14 13  1  0  0  0  0
 15 14  2  0  0  0  0
 16 15  1  0  0  0  0
 17 16  2  0  0  0  0
 17 18  1  0  0  0  0
 18 19  2  0  0  0  0
 19 14  1  0  0  0  0
 20 17  1  0  0  0  0
 21 20  1  0  0  0  0
M  END
>  <MODEL>
2

>  <REMARK>
 VINA RESULT:    -6.470      2.143      4.918
 INTER + INTRA:         -10.863
 INTER:                  -9.085
 INTRA:                  -1.777
 UNBOUND:                -0.611
  Name = CHEMBL77233
  12 active torsions:
  status: ('A' for Active; 'I' for Inactive)
    1  A    between atoms: C_1  and  C_2
    2  A    between atoms: C_2  and  C_3
    3  A    between atoms: C_3  and  C_4
    4  A    between atoms: C_4  and  C_5
    5  A    between atoms: C_5  and  C_6
    6  A    between atoms: C_6  and  C_7
    7  A    between atoms: C_7  and  C_8
    8  A    between atoms: C_8  and  C_9
    9  A    between atoms: N_11  and  C_12
   10  A    between atoms: C_12  and  C_13
   11  A    between atoms: C_16  and  O_17
   12  A    between atoms: O_17  and  C_18
                            x       y       z     vdW  Elec       q    Type
                         _______ _______ _______ _____ _____    ______ ____

>  <TORSDO>
F 10

>  <SCORE>
-6.470

>  <RMSD_LB>
2.143

>  <RMSD_UB>
4.918

$$$$
CHEMBL77233
 OpenBabel10172500443D

 21 21  0  0  0  0  0  0  0  0999 V2000
  136.6160  135.2260  150.9270 C   0  0  0  0  0  0  0  0  0  0  0  0
  137.1700  134.9600  149.8670 O   0  0  0  0  0  0  0  0  0  0  0  0
  136.7930  136.4180  151.5940 N   0  0  0  0  0  0  0  0  0  0  0  0
  136.3280  136.5720  152.4470 H   0  0  0  0  0  0  0  0  0  0  0  0
  135.6510  134.2790  151.6160 C   0  0  0  0  0  2  0  0  0  0  0  0
  134.8950  134.9970  152.7320 C   0  0  0  0  0  2  0  0  0  0  0  0
  134.6260  134.0830  153.9240 C   0  0  0  0  0  2  0  0  0  0  0  0
  134.8720  134.8330  155.2330 C   0  0  0  0  0  2  0  0  0  0  0  0
  135.8060  136.0240  155.0350 C   0  0  0  0  0  2  0  0  0  0  0  0
  137.1580  135.7680  155.7000 C   0  0  0  0  0  2  0  0  0  0  0  0
  137.9980  137.4910  157.3290 C   0  0  0  0  0  1  0  0  0  0  0  0
  137.1590  136.2360  157.1530 C   0  0  0  0  0  2  0  0  0  0  0  0
  137.6550  137.4450  151.0520 C   0  0  0  0  0  2  0  0  0  0  0  0
  138.8620  137.6920  151.9210 C   0  0  0  0  0  0  0  0  0  0  0  0
  138.6980  138.0240  153.2750 C   0  0  0  0  0  3  0  0  0  0  0  0
  139.8040  138.1770  154.1190 C   0  0  0  0  0  3  0  0  0  0  0  0
  141.0940  137.9980  153.6230 C   0  0  0  0  0  0  0  0  0  0  0  0
  141.2640  137.6680  152.2760 C   0  0  0  0  0  3  0  0  0  0  0  0
  140.1590  137.5160  151.4290 C   0  0  0  0  0  3  0  0  0  0  0  0
  142.2540  138.1140  154.3380 O   0  0  0  0  0  0  0  0  0  0  0  0
  143.1630  139.1280  153.9300 C   0  0  0  0  0  1  0  0  0  0  0  0
  1  3  1  0  0  0  0
  1  5  1  0  0  0  0
  2  1  2  0  0  0  0
  3  4  1  0  0  0  0
  5  6  1  0  0  0  0
  6  7  1  0  0  0  0
  7  8  1  0  0  0  0
  9  8  1  0  0  0  0
  9 10  1  0  0  0  0
 10 12  1  0  0  0  0
 12 11  1  0  0  0  0
 13  3  1  0  0  0  0
 13 14  1  0  0  0  0
 14 15  1  0  0  0  0
 15 16  2  0  0  0  0
 17 16  1  0  0  0  0
 17 20  1  0  0  0  0
 18 17  2  0  0  0  0
 19 14  2  0  0  0  0
 19 18  1  0  0  0  0
 21 20  1  0  0  0  0
M  END
>  <MODEL>
3

>  <REMARK>
 VINA RESULT:    -6.077      5.236     10.669
 INTER + INTRA:         -10.240
 INTER:                  -8.920
 INTRA:                  -1.321
 UNBOUND:                -0.611
  Name = CHEMBL77233
  12 active torsions:
  status: ('A' for Active; 'I' for Inactive)
    1  A    between atoms: C_1  and  C_2
    2  A    between atoms: C_2  and  C_3
    3  A    between atoms: C_3  and  C_4
    4  A    between atoms: C_4  and  C_5
    5  A    between atoms: C_5  and  C_6
    6  A    between atoms: C_6  and  C_7
    7  A    between atoms: C_7  and  C_8
    8  A    between atoms: C_8  and  C_9
    9  A    between atoms: N_11  and  C_12
   10  A    between atoms: C_12  and  C_13
   11  A    between atoms: C_16  and  O_17
   12  A    between atoms: O_17  and  C_18
                            x       y       z     vdW  Elec       q    Type
                         _______ _______ _______ _____ _____    ______ ____

>  <TORSDO>
F 10

>  <SCORE>
-6.077

>  <RMSD_LB>
5.236

>  <RMSD_UB>
10.669

$$$$
CHEMBL77233
 OpenBabel10172500443D

 21 21  0  0  0  0  0  0  0  0999 V2000
  134.2830  133.5760  146.3220 C   0  0  0  0  0  0  0  0  0  0  0  0
  134.7940  132.4970  146.5990 O   0  0  0  0  0  0  0  0  0  0  0  0
  133.2450  134.1260  147.0420 N   0  0  0  0  0  0  0  0  0  0  0  0
  132.8680  134.9920  146.7680 H   0  0  0  0  0  0  0  0  0  0  0  0
  134.7510  134.4420  145.1680 C   0  0  0  0  0  2  0  0  0  0  0  0
  136.2140  134.1580  144.8380 C   0  0  0  0  0  2  0  0  0  0  0  0
  136.4150  133.8150  143.3650 C   0  0  0  0  0  2  0  0  0  0  0  0
  136.8100  132.3470  143.2100 C   0  0  0  0  0  2  0  0  0  0  0  0
  137.7890  132.1440  142.0560 C   0  0  0  0  0  2  0  0  0  0  0  0
  138.0060  133.4500  141.2940 C   0  0  0  0  0  2  0  0  0  0  0  0
  139.8140  133.5090  139.5460 C   0  0  0  0  0  1  0  0  0  0  0  0
  138.3550  133.1880  139.8320 C   0  0  0  0  0  2  0  0  0  0  0  0
  132.7050  133.4420  148.1960 C   0  0  0  0  0  2  0  0  0  0  0  0
  133.0640  134.1330  149.4870 C   0  0  0  0  0  0  0  0  0  0  0  0
  133.7080  133.4200  150.5100 C   0  0  0  0  0  3  0  0  0  0  0  0
  134.1240  134.0600  151.6840 C   0  0  0  0  0  3  0  0  0  0  0  0
  133.9070  135.4260  151.8510 C   0  0  0  0  0  0  0  0  0  0  0  0
  133.2670  136.1410  150.8360 C   0  0  0  0  0  3  0  0  0  0  0  0
  132.8480  135.5040  149.6620 C   0  0  0  0  0  3  0  0  0  0  0  0
  134.2660  136.1700  152.9420 O   0  0  0  0  0  0  0  0  0  0  0  0
  133.9120  135.6530  154.2180 C   0  0  0  0  0  1  0  0  0  0  0  0
  1  2  2  0  0  0  0
  1  3  1  0  0  0  0
  3 13  1  0  0  0  0
  4  3  1  0  0  0  0
  5  1  1  0  0  0  0
  6  5  1  0  0  0  0
  7  6  1  0  0  0  0
  8  7  1  0  0  0  0
  9  8  1  0  0  0  0
 10  9  1  0  0  0  0
 11 12  1  0  0  0  0
 12 10  1  0  0  0  0
 13 14  1  0  0  0  0
 14 19  2  0  0  0  0
 14 15  1  0  0  0  0
 15 16  2  0  0  0  0
 16 17  1  0  0  0  0
 17 20  1  0  0  0  0
 18 17  2  0  0  0  0
 19 18  1  0  0  0  0
 20 21  1  0  0  0  0
M  END
>  <MODEL>
4

>  <REMARK>
 VINA RESULT:    -6.057     13.131     14.582
 INTER + INTRA:         -10.209
 INTER:                  -9.614
 INTRA:                  -0.595
 UNBOUND:                -0.611
  Name = CHEMBL77233
  12 active torsions:
  status: ('A' for Active; 'I' for Inactive)
    1  A    between atoms: C_1  and  C_2
    2  A    between atoms: C_2  and  C_3
    3  A    between atoms: C_3  and  C_4
    4  A    between atoms: C_4  and  C_5
    5  A    between atoms: C_5  and  C_6
    6  A    between atoms: C_6  and  C_7
    7  A    between atoms: C_7  and  C_8
    8  A    between atoms: C_8  and  C_9
    9  A    between atoms: N_11  and  C_12
   10  A    between atoms: C_12  and  C_13
   11  A    between atoms: C_16  and  O_17
   12  A    between atoms: O_17  and  C_18
                            x       y       z     vdW  Elec       q    Type
                         _______ _______ _______ _____ _____    ______ ____

>  <TORSDO>
F 10

>  <SCORE>
-6.057

>  <RMSD_LB>
13.131

>  <RMSD_UB>
14.582

$$$$
CHEMBL77233
 OpenBabel10172500443D

 21 21  0  0  0  0  0  0  0  0999 V2000
  135.0150  135.6110  154.7120 C   0  0  0  0  0  0  0  0  0  0  0  0
  134.3670  136.5840  154.3460 O   0  0  0  0  0  0  0  0  0  0  0  0
  136.1080  135.7020  155.5460 N   0  0  0  0  0  0  0  0  0  0  0  0
  136.5960  134.8870  155.8000 H   0  0  0  0  0  0  0  0  0  0  0  0
  134.6730  134.1890  154.3080 C   0  0  0  0  0  2  0  0  0  0  0  0
  134.3170  134.1210  152.8250 C   0  0  0  0  0  2  0  0  0  0  0  0
  135.5510  134.2160  151.9320 C   0  0  0  0  0  2  0  0  0  0  0  0
  135.1550  134.0770  150.4630 C   0  0  0  0  0  2  0  0  0  0  0  0
  133.6940  133.6650  150.3080 C   0  0  0  0  0  2  0  0  0  0  0  0
  132.9590  134.6170  149.3650 C   0  0  0  0  0  2  0  0  0  0  0  0
  132.7700  136.9860  148.5430 C   0  0  0  0  0  1  0  0  0  0  0  0
  133.5200  136.0330  149.4590 C   0  0  0  0  0  2  0  0  0  0  0  0
  136.5450  136.9850  156.0510 C   0  0  0  0  0  2  0  0  0  0  0  0
  137.9380  137.3340  155.5910 C   0  0  0  0  0  0  0  0  0  0  0  0
  138.1580  137.7520  154.2700 C   0  0  0  0  0  3  0  0  0  0  0  0
  139.4280  138.1590  153.8450 C   0  0  0  0  0  3  0  0  0  0  0  0
  140.4990  138.1570  154.7360 C   0  0  0  0  0  0  0  0  0  0  0  0
  140.2860  137.7420  156.0530 C   0  0  0  0  0  3  0  0  0  0  0  0
  139.0170  137.3320  156.4810 C   0  0  0  0  0  3  0  0  0  0  0  0
  141.7840  138.5330  154.4510 O   0  0  0  0  0  0  0  0  0  0  0  0
  142.3680  139.5170  155.2940 C   0  0  0  0  0  1  0  0  0  0  0  0
  1  3  1  0  0  0  0
  2  1  2  0  0  0  0
  3  4  1  0  0  0  0
  3 13  1  0  0  0  0
  5  1  1  0  0  0  0
  6  5  1  0  0  0  0
  7  6  1  0  0  0  0
  8  7  1  0  0  0  0
  9  8  1  0  0  0  0
 10 12  1  0  0  0  0
 10  9  1  0  0  0  0
 11 12  1  0  0  0  0
 14 13  1  0  0  0  0
 14 19  1  0  0  0  0
 15 14  2  0  0  0  0
 16 15  1  0  0  0  0
 16 17  2  0  0  0  0
 17 18  1  0  0  0  0
 18 19  2  0  0  0  0
 20 17  1  0  0  0  0
 20 21  1  0  0  0  0
M  END
>  <MODEL>
5

>  <REMARK>
 VINA RESULT:    -6.033      6.574     11.554
 INTER + INTRA:         -10.170
 INTER:                  -9.345
 INTRA:                  -0.825
 UNBOUND:                -0.611
  Name = CHEMBL77233
  12 active torsions:
  status: ('A' for Active; 'I' for Inactive)
    1  A    between atoms: C_1  and  C_2
    2  A    between atoms: C_2  and  C_3
    3  A    between atoms: C_3  and  C_4
    4  A    between atoms: C_4  and  C_5
    5  A    between atoms: C_5  and  C_6
    6  A    between atoms: C_6  and  C_7
    7  A    between atoms: C_7  and  C_8
    8  A    between atoms: C_8  and  C_9
    9  A    between atoms: N_11  and  C_12
   10  A    between atoms: C_12  and  C_13
   11  A    between atoms: C_16  and  O_17
   12  A    between atoms: O_17  and  C_18
                            x       y       z     vdW  Elec       q    Type
                         _______ _______ _______ _____ _____    ______ ____

>  <TORSDO>
F 10

>  <SCORE>
-6.033

>  <RMSD_LB>
6.574

>  <RMSD_UB>
11.554

$$$$
CHEMBL77233
 OpenBabel10172500443D

 21 21  0  0  0  0  0  0  0  0999 V2000
  134.7000  133.0120  146.8410 C   0  0  0  0  0  0  0  0  0  0  0  0
  134.8300  131.9510  147.4390 O   0  0  0  0  0  0  0  0  0  0  0  0
  133.6740  133.8980  147.0870 N   0  0  0  0  0  0  0  0  0  0  0  0
  133.6150  134.7320  146.5680 H   0  0  0  0  0  0  0  0  0  0  0  0
  135.6700  133.4850  145.7730 C   0  0  0  0  0  2  0  0  0  0  0  0
  136.4800  134.6790  146.2710 C   0  0  0  0  0  2  0  0  0  0  0  0
  137.9200  134.2980  146.6030 C   0  0  0  0  0  2  0  0  0  0  0  0
  138.0910  134.1380  148.1130 C   0  0  0  0  0  2  0  0  0  0  0  0
  136.9260  134.7540  148.8820 C   0  0  0  0  0  2  0  0  0  0  0  0
  137.4340  135.6530  150.0080 C   0  0  0  0  0  2  0  0  0  0  0  0
  136.3490  137.4790  148.6610 C   0  0  0  0  0  1  0  0  0  0  0  0
  136.6640  136.9700  150.0580 C   0  0  0  0  0  2  0  0  0  0  0  0
  132.6830  133.6140  148.1010 C   0  0  0  0  0  2  0  0  0  0  0  0
  133.0050  134.2790  149.4150 C   0  0  0  0  0  0  0  0  0  0  0  0
  133.6310  133.5490  150.4370 C   0  0  0  0  0  3  0  0  0  0  0  0
  134.0130  134.1670  151.6340 C   0  0  0  0  0  3  0  0  0  0  0  0
  133.7780  135.5270  151.8260 C   0  0  0  0  0  0  0  0  0  0  0  0
  133.1570  136.2590  150.8120 C   0  0  0  0  0  3  0  0  0  0  0  0
  132.7710  135.6430  149.6150 C   0  0  0  0  0  3  0  0  0  0  0  0
  134.1040  136.2500  152.9410 O   0  0  0  0  0  0  0  0  0  0  0  0
  133.8860  135.6260  154.2000 C   0  0  0  0  0  1  0  0  0  0  0  0
  1  3  1  0  0  0  0
  1  2  2  0  0  0  0
  3 13  1  0  0  0  0
  4  3  1  0  0  0  0
  5  6  1  0  0  0  0
  5  1  1  0  0  0  0
  6  7  1  0  0  0  0
  7  8  1  0  0  0  0
  8  9  1  0  0  0  0
  9 10  1  0  0  0  0
 10 12  1  0  0  0  0
 11 12  1  0  0  0  0
 13 14  1  0  0  0  0
 14 19  2  0  0  0  0
 14 15  1  0  0  0  0
 15 16  2  0  0  0  0
 16 17  1  0  0  0  0
 17 20  1  0  0  0  0
 18 17  2  0  0  0  0
 19 18  1  0  0  0  0
 20 21  1  0  0  0  0
M  END
>  <MODEL>
6

>  <REMARK>
 VINA RESULT:    -6.018     10.930     13.255
 INTER + INTRA:         -10.147
 INTER:                  -8.210
 INTRA:                  -1.937
 UNBOUND:                -0.611
  Name = CHEMBL77233
  12 active torsions:
  status: ('A' for Active; 'I' for Inactive)
    1  A    between atoms: C_1  and  C_2
    2  A    between atoms: C_2  and  C_3
    3  A    between atoms: C_3  and  C_4
    4  A    between atoms: C_4  and  C_5
    5  A    between atoms: C_5  and  C_6
    6  A    between atoms: C_6  and  C_7
    7  A    between atoms: C_7  and  C_8
    8  A    between atoms: C_8  and  C_9
    9  A    between atoms: N_11  and  C_12
   10  A    between atoms: C_12  and  C_13
   11  A    between atoms: C_16  and  O_17
   12  A    between atoms: O_17  and  C_18
                            x       y       z     vdW  Elec       q    Type
                         _______ _______ _______ _____ _____    ______ ____

>  <TORSDO>
F 10

>  <SCORE>
-6.018

>  <RMSD_LB>
10.930

>  <RMSD_UB>
13.255

$$$$
CHEMBL77233
 OpenBabel10172500443D

 21 21  0  0  0  0  0  0  0  0999 V2000
  146.7750  138.1110  154.1480 C   0  0  0  0  0  0  0  0  0  0  0  0
  147.3940  137.0540  154.1090 O   0  0  0  0  0  0  0  0  0  0  0  0
  145.5990  138.3220  153.4630 N   0  0  0  0  0  0  0  0  0  0  0  0
  145.1490  139.1950  153.5240 H   0  0  0  0  0  0  0  0  0  0  0  0
  147.2220  139.3030  154.9740 C   0  0  0  0  0  2  0  0  0  0  0  0
  148.0370  140.2730  154.1230 C   0  0  0  0  0  2  0  0  0  0  0  0
  147.3010  141.5890  153.8870 C   0  0  0  0  0  2  0  0  0  0  0  0
  147.4090  142.0010  152.4190 C   0  0  0  0  0  2  0  0  0  0  0  0
  146.0480  142.3670  151.8330 C   0  0  0  0  0  2  0  0  0  0  0  0
  145.0650  141.2060  151.9830 C   0  0  0  0  0  2  0  0  0  0  0  0
  145.5350  139.8720  149.9020 C   0  0  0  0  0  1  0  0  0  0  0  0
  144.5300  140.7540  150.6270 C   0  0  0  0  0  2  0  0  0  0  0  0
  145.0170  137.2720  152.6560 C   0  0  0  0  0  2  0  0  0  0  0  0
  143.5160  137.3830  152.5730 C   0  0  0  0  0  0  0  0  0  0  0  0
  142.7780  137.7970  153.6930 C   0  0  0  0  0  3  0  0  0  0  0  0
  141.3930  137.9850  153.6150 C   0  0  0  0  0  3  0  0  0  0  0  0
  140.7230  137.7650  152.4140 C   0  0  0  0  0  0  0  0  0  0  0  0
  141.4520  137.3540  151.2950 C   0  0  0  0  0  3  0  0  0  0  0  0
  142.8370  137.1620  151.3700 C   0  0  0  0  0  3  0  0  0  0  0  0
  139.3790  137.9160  152.2020 O   0  0  0  0  0  0  0  0  0  0  0  0
  138.9860  138.5650  151.0010 C   0  0  0  0  0  1  0  0  0  0  0  0
  1  5  1  0  0  0  0
  2  1  2  0  0  0  0
  3  4  1  0  0  0  0
  3  1  1  0  0  0  0
  6  5  1  0  0  0  0
  7  6  1  0  0  0  0
  8  7  1  0  0  0  0
  9 10  1  0  0  0  0
  9  8  1  0  0  0  0
 11 12  1  0  0  0  0
 12 10  1  0  0  0  0
 13  3  1  0  0  0  0
 14 13  1  0  0  0  0
 14 15  1  0  0  0  0
 16 15  2  0  0  0  0
 17 16  1  0  0  0  0
 18 19  1  0  0  0  0
 18 17  2  0  0  0  0
 19 14  2  0  0  0  0
 20 17  1  0  0  0  0
 21 20  1  0  0  0  0
M  END
>  <MODEL>
7

>  <REMARK>
 VINA RESULT:    -5.922      1.615      2.577
 INTER + INTRA:          -9.995
 INTER:                  -8.675
 INTRA:                  -1.320
 UNBOUND:                -0.611
  Name = CHEMBL77233
  12 active torsions:
  status: ('A' for Active; 'I' for Inactive)
    1  A    between atoms: C_1  and  C_2
    2  A    between atoms: C_2  and  C_3
    3  A    between atoms: C_3  and  C_4
    4  A    between atoms: C_4  and  C_5
    5  A    between atoms: C_5  and  C_6
    6  A    between atoms: C_6  and  C_7
    7  A    between atoms: C_7  and  C_8
    8  A    between atoms: C_8  and  C_9
    9  A    between atoms: N_11  and  C_12
   10  A    between atoms: C_12  and  C_13
   11  A    between atoms: C_16  and  O_17
   12  A    between atoms: O_17  and  C_18
                            x       y       z     vdW  Elec       q    Type
                         _______ _______ _______ _____ _____    ______ ____

>  <TORSDO>
F 10

>  <SCORE>
-5.922

>  <RMSD_LB>
1.615

>  <RMSD_UB>
2.577

$$$$
CHEMBL77233
 OpenBabel10172500443D

 21 21  0  0  0  0  0  0  0  0999 V2000
  138.0450  137.8590  155.3120 C   0  0  0  0  0  0  0  0  0  0  0  0
  137.6000  138.9270  154.9100 O   0  0  0  0  0  0  0  0  0  0  0  0
  139.3920  137.5750  155.3650 N   0  0  0  0  0  0  0  0  0  0  0  0
  139.6920  136.6950  155.6890 H   0  0  0  0  0  0  0  0  0  0  0  0
  137.1640  136.7330  155.8200 C   0  0  0  0  0  2  0  0  0  0  0  0
  136.4470  136.0450  154.6610 C   0  0  0  0  0  2  0  0  0  0  0  0
  135.0180  135.6500  155.0230 C   0  0  0  0  0  2  0  0  0  0  0  0
  134.6740  134.2890  154.4190 C   0  0  0  0  0  2  0  0  0  0  0  0
  135.1620  134.1720  152.9780 C   0  0  0  0  0  2  0  0  0  0  0  0
  134.0520  134.5490  151.9970 C   0  0  0  0  0  2  0  0  0  0  0  0
  132.6080  133.7460  150.1000 C   0  0  0  0  0  1  0  0  0  0  0  0
  133.8110  133.4390  150.9780 C   0  0  0  0  0  2  0  0  0  0  0  0
  140.3700  138.5560  154.9500 C   0  0  0  0  0  2  0  0  0  0  0  0
  141.1300  138.1190  153.7230 C   0  0  0  0  0  0  0  0  0  0  0  0
  142.5160  137.9120  153.7910 C   0  0  0  0  0  3  0  0  0  0  0  0
  143.2290  137.4280  152.6880 C   0  0  0  0  0  3  0  0  0  0  0  0
  142.5640  137.1400  151.4970 C   0  0  0  0  0  0  0  0  0  0  0  0
  141.1840  137.3430  151.4230 C   0  0  0  0  0  3  0  0  0  0  0  0
  140.4690  137.8290  152.5240 C   0  0  0  0  0  3  0  0  0  0  0  0
  143.1380  136.6600  150.3510 O   0  0  0  0  0  0  0  0  0  0  0  0
  142.8310  137.3420  149.1430 C   0  0  0  0  0  1  0  0  0  0  0  0
  1  3  1  0  0  0  0
  1  5  1  0  0  0  0
  2  1  2  0  0  0  0
  3  4  1  0  0  0  0
  6  7  1  0  0  0  0
  6  5  1  0  0  0  0
  8  7  1  0  0  0  0
  9  8  1  0  0  0  0
 10  9  1  0  0  0  0
 11 12  1  0  0  0  0
 12 10  1  0  0  0  0
 13  3  1  0  0  0  0
 14 15  1  0  0  0  0
 14 13  1  0  0  0  0
 16 15  2  0  0  0  0
 17 16  1  0  0  0  0
 18 17  2  0  0  0  0
 18 19  1  0  0  0  0
 19 14  2  0  0  0  0
 20 17  1  0  0  0  0
 21 20  1  0  0  0  0
M  END
>  <MODEL>
8

>  <REMARK>
 VINA RESULT:    -5.910      5.284     10.170
 INTER + INTRA:          -9.975
 INTER:                  -9.365
 INTRA:                  -0.611
 UNBOUND:                -0.611
  Name = CHEMBL77233
  12 active torsions:
  status: ('A' for Active; 'I' for Inactive)
    1  A    between atoms: C_1  and  C_2
    2  A    between atoms: C_2  and  C_3
    3  A    between atoms: C_3  and  C_4
    4  A    between atoms: C_4  and  C_5
    5  A    between atoms: C_5  and  C_6
    6  A    between atoms: C_6  and  C_7
    7  A    between atoms: C_7  and  C_8
    8  A    between atoms: C_8  and  C_9
    9  A    between atoms: N_11  and  C_12
   10  A    between atoms: C_12  and  C_13
   11  A    between atoms: C_16  and  O_17
   12  A    between atoms: O_17  and  C_18
                            x       y       z     vdW  Elec       q    Type
                         _______ _______ _______ _____ _____    ______ ____

>  <TORSDO>
F 10

>  <SCORE>
-5.910

>  <RMSD_LB>
5.284

>  <RMSD_UB>
10.170

$$$$
CHEMBL77233
 OpenBabel10172500443D

 21 21  0  0  0  0  0  0  0  0999 V2000
  147.0480  139.4730  154.2390 C   0  0  0  0  0  0  0  0  0  0  0  0
  147.8700  138.6020  154.4960 O   0  0  0  0  0  0  0  0  0  0  0  0
  145.7210  139.2080  153.9840 N   0  0  0  0  0  0  0  0  0  0  0  0
  145.1080  139.9470  153.7740 H   0  0  0  0  0  0  0  0  0  0  0  0
  147.3930  140.9500  154.1960 C   0  0  0  0  0  2  0  0  0  0  0  0
  146.3730  141.7180  153.3600 C   0  0  0  0  0  2  0  0  0  0  0  0
  146.9900  142.2970  152.0890 C   0  0  0  0  0  2  0  0  0  0  0  0
  145.9590  142.3170  150.9600 C   0  0  0  0  0  2  0  0  0  0  0  0
  144.7810  141.3920  151.2550 C   0  0  0  0  0  2  0  0  0  0  0  0
  144.7820  140.1950  150.3050 C   0  0  0  0  0  2  0  0  0  0  0  0
  143.7990  139.6030  148.0670 C   0  0  0  0  0  1  0  0  0  0  0  0
  143.5170  140.1630  149.4520 C   0  0  0  0  0  2  0  0  0  0  0  0
  145.2200  137.8510  154.0200 C   0  0  0  0  0  2  0  0  0  0  0  0
  144.4340  137.5000  152.7830 C   0  0  0  0  0  0  0  0  0  0  0  0
  145.0720  136.8780  151.6980 C   0  0  0  0  0  3  0  0  0  0  0  0
  144.3460  136.4700  150.5730 C   0  0  0  0  0  3  0  0  0  0  0  0
  142.9690  136.6730  150.5160 C   0  0  0  0  0  0  0  0  0  0  0  0
  142.3290  137.2910  151.5920 C   0  0  0  0  0  3  0  0  0  0  0  0
  143.0520  137.7030  152.7180 C   0  0  0  0  0  3  0  0  0  0  0  0
  142.1450  136.3200  149.4820 O   0  0  0  0  0  0  0  0  0  0  0  0
  141.0970  137.2230  149.1560 C   0  0  0  0  0  1  0  0  0  0  0  0
  1  2  2  0  0  0  0
  3 13  1  0  0  0  0
  3  1  1  0  0  0  0
  4  3  1  0  0  0  0
  5  1  1  0  0  0  0
  6  5  1  0  0  0  0
  7  6  1  0  0  0  0
  8  9  1  0  0  0  0
  8  7  1  0  0  0  0
 10  9  1  0  0  0  0
 11 12  1  0  0  0  0
 12 10  1  0  0  0  0
 14 13  1  0  0  0  0
 15 14  2  0  0  0  0
 16 15  1  0  0  0  0
 17 16  2  0  0  0  0
 17 18  1  0  0  0  0
 18 19  2  0  0  0  0
 19 14  1  0  0  0  0
 20 17  1  0  0  0  0
 21 20  1  0  0  0  0
M  END
>  <MODEL>
9

>  <REMARK>
 VINA RESULT:    -5.877      1.781      2.597
 INTER + INTRA:          -9.923
 INTER:                  -8.039
 INTRA:                  -1.885
 UNBOUND:                -0.611
  Name = CHEMBL77233
  12 active torsions:
  status: ('A' for Active; 'I' for Inactive)
    1  A    between atoms: C_1  and  C_2
    2  A    between atoms: C_2  and  C_3
    3  A    between atoms: C_3  and  C_4
    4  A    between atoms: C_4  and  C_5
    5  A    between atoms: C_5  and  C_6
    6  A    between atoms: C_6  and  C_7
    7  A    between atoms: C_7  and  C_8
    8  A    between atoms: C_8  and  C_9
    9  A    between atoms: N_11  and  C_12
   10  A    between atoms: C_12  and  C_13
   11  A    between atoms: C_16  and  O_17
   12  A    between atoms: O_17  and  C_18
                            x       y       z     vdW  Elec       q    Type
                         _______ _______ _______ _____ _____    ______ ____

>  <TORSDO>
F 10

>  <SCORE>
-5.877

>  <RMSD_LB>
1.781

>  <RMSD_UB>
2.597

$$$$
