CHEMBL80858
 OpenBabel10162523413D

 24 25  0  0  0  0  0  0  0  0999 V2000
  146.9980  140.1480  154.9200 N   0  0  0  0  0  0  0  0  0  0  0  0
  148.2830  140.2870  154.4440 C   0  0  0  0  0  0  0  0  0  0  0  0
  149.0420  139.3390  154.2760 O   0  0  0  0  0  0  0  0  0  0  0  0
  146.4440  140.9530  155.0340 H   0  0  0  0  0  0  0  0  0  0  0  0
  146.4370  138.8570  155.2590 C   0  0  0  0  0  2  0  0  0  0  0  0
  145.7060  136.7130  152.1760 C   0  0  0  0  0  0  0  0  0  0  0  0
  146.3490  137.2630  153.2910 C   0  0  0  0  0  3  0  0  0  0  0  0
  145.7150  138.2320  154.0900 C   0  0  0  0  0  0  0  0  0  0  0  0
  144.4190  138.6500  153.7510 C   0  0  0  0  0  3  0  0  0  0  0  0
  143.7670  138.1090  152.6420 C   0  0  0  0  0  3  0  0  0  0  0  0
  144.4120  137.1490  151.8630 C   0  0  0  0  0  0  0  0  0  0  0  0
  147.1380  136.2230  150.3310 C   0  0  0  0  0  1  0  0  0  0  0  0
  146.2460  135.7720  151.3400 O   0  0  0  0  0  0  0  0  0  0  0  0
  143.7760  136.6250  150.7680 O   0  0  0  0  0  0  0  0  0  0  0  0
  143.6140  135.7030  150.7180 H   0  0  0  0  0  0  0  0  0  0  0  0
  148.6930  141.7240  154.1930 C   0  0  0  0  0  2  0  0  0  0  0  0
  148.7940  142.0040  152.6940 C   0  0  0  0  0  2  0  0  0  0  0  0
  147.5440  141.6090  151.9470 C   0  0  0  0  0  0  0  0  0  0  0  0
  147.5570  140.5070  151.0800 C   0  0  0  0  0  3  0  0  0  0  0  0
  146.3990  140.1280  150.3970 C   0  0  0  0  0  3  0  0  0  0  0  0
  145.2220  140.8520  150.5730 C   0  0  0  0  0  0  0  0  0  0  0  0
  143.7940  140.3820  149.7380 Cl  0  0  0  0  0  0  0  0  0  0  0  0
  145.1960  141.9540  151.4250 C   0  0  0  0  0  3  0  0  0  0  0  0
  146.3540  142.3340  152.1080 C   0  0  0  0  0  3  0  0  0  0  0  0
  1  4  1  0  0  0  0
  1  5  1  0  0  0  0
  2  1  1  0  0  0  0
  3  2  2  0  0  0  0
  6  7  1  0  0  0  0
  7  8  2  0  0  0  0
  8  5  1  0  0  0  0
  9  8  1  0  0  0  0
 10  9  2  0  0  0  0
 11  6  2  0  0  0  0
 11 10  1  0  0  0  0
 12 13  1  0  0  0  0
 13  6  1  0  0  0  0
 14 11  1  0  0  0  0
 15 14  1  0  0  0  0
 16  2  1  0  0  0  0
 17 16  1  0  0  0  0
 18 24  1  0  0  0  0
 18 17  1  0  0  0  0
 19 18  2  0  0  0  0
 20 21  2  0  0  0  0
 20 19  1  0  0  0  0
 21 23  1  0  0  0  0
 22 21  1  0  0  0  0
 23 24  2  0  0  0  0
M  END
>  <MODEL>
1

>  <REMARK>
 VINA RESULT:    -7.001      0.000      0.000
 INTER + INTRA:         -11.242
 INTER:                  -9.542
 INTRA:                  -1.700
 UNBOUND:                -1.581
  Name = CHEMBL80858
  8 active torsions:
  status: ('A' for Active; 'I' for Inactive)
    1  A    between atoms: C_1  and  O_2
    2  A    between atoms: O_2  and  C_3
    3  A    between atoms: C_5  and  C_6
    4  A    between atoms: C_6  and  N_7
    5  A    between atoms: C_8  and  C_10
    6  A    between atoms: C_10  and  C_11
    7  A    between atoms: C_11  and  C_12
    8  A    between atoms: C_21  and  O_22
                            x       y       z     vdW  Elec       q    Type
                         _______ _______ _______ _____ _____    ______ ____

>  <TORSDO>
F 7

>  <SCORE>
-7.001

>  <RMSD_LB>
0.000

>  <RMSD_UB>
0.000

$$$$
CHEMBL80858
 OpenBabel10162523413D

 24 25  0  0  0  0  0  0  0  0999 V2000
  144.9700  141.4910  150.1840 N   0  0  0  0  0  0  0  0  0  0  0  0
  146.2230  141.5250  149.6130 C   0  0  0  0  0  0  0  0  0  0  0  0
  146.6550  140.6350  148.8900 O   0  0  0  0  0  0  0  0  0  0  0  0
  144.6890  142.2410  150.7580 H   0  0  0  0  0  0  0  0  0  0  0  0
  144.0550  140.3910  149.9700 C   0  0  0  0  0  2  0  0  0  0  0  0
  143.5490  138.7430  153.3850 C   0  0  0  0  0  0  0  0  0  0  0  0
  143.4650  139.6470  152.3190 C   0  0  0  0  0  3  0  0  0  0  0  0
  144.1080  139.3860  151.0950 C   0  0  0  0  0  0  0  0  0  0  0  0
  144.8440  138.2000  150.9530 C   0  0  0  0  0  3  0  0  0  0  0  0
  144.9350  137.2910  152.0080 C   0  0  0  0  0  3  0  0  0  0  0  0
  144.2910  137.5670  153.2130 C   0  0  0  0  0  0  0  0  0  0  0  0
  141.5450  138.9230  154.6680 C   0  0  0  0  0  1  0  0  0  0  0  0
  142.9640  138.9170  154.6110 O   0  0  0  0  0  0  0  0  0  0  0  0
  144.3880  136.6800  154.2530 O   0  0  0  0  0  0  0  0  0  0  0  0
  143.8330  135.9250  154.2770 H   0  0  0  0  0  0  0  0  0  0  0  0
  147.0420  142.7410  149.9990 C   0  0  0  0  0  2  0  0  0  0  0  0
  148.2010  142.3450  150.9120 C   0  0  0  0  0  2  0  0  0  0  0  0
  147.7520  141.5090  152.0850 C   0  0  0  0  0  0  0  0  0  0  0  0
  148.1800  140.1800  152.2110 C   0  0  0  0  0  3  0  0  0  0  0  0
  147.7800  139.4050  153.3020 C   0  0  0  0  0  3  0  0  0  0  0  0
  146.9450  139.9540  154.2720 C   0  0  0  0  0  0  0  0  0  0  0  0
  146.4580  139.0040  155.6200 Cl  0  0  0  0  0  0  0  0  0  0  0  0
  146.5040  141.2710  154.1580 C   0  0  0  0  0  3  0  0  0  0  0  0
  146.9050  142.0460  153.0660 C   0  0  0  0  0  3  0  0  0  0  0  0
  1  4  1  0  0  0  0
  2 16  1  0  0  0  0
  2  1  1  0  0  0  0
  3  2  2  0  0  0  0
  5  1  1  0  0  0  0
  5  8  1  0  0  0  0
  6 13  1  0  0  0  0
  7  6  2  0  0  0  0
  8  7  1  0  0  0  0
  9  8  2  0  0  0  0
  9 10  1  0  0  0  0
 10 11  2  0  0  0  0
 11  6  1  0  0  0  0
 11 14  1  0  0  0  0
 13 12  1  0  0  0  0
 14 15  1  0  0  0  0
 16 17  1  0  0  0  0
 17 18  1  0  0  0  0
 18 19  2  0  0  0  0
 18 24  1  0  0  0  0
 19 20  1  0  0  0  0
 20 21  2  0  0  0  0
 21 22  1  0  0  0  0
 23 21  1  0  0  0  0
 24 23  2  0  0  0  0
M  END
>  <MODEL>
2

>  <REMARK>
 VINA RESULT:    -6.808      2.826      4.219
 INTER + INTRA:         -10.977
 INTER:                  -9.157
 INTRA:                  -1.819
 UNBOUND:                -1.581
  Name = CHEMBL80858
  8 active torsions:
  status: ('A' for Active; 'I' for Inactive)
    1  A    between atoms: C_1  and  O_2
    2  A    between atoms: O_2  and  C_3
    3  A    between atoms: C_5  and  C_6
    4  A    between atoms: C_6  and  N_7
    5  A    between atoms: C_8  and  C_10
    6  A    between atoms: C_10  and  C_11
    7  A    between atoms: C_11  and  C_12
    8  A    between atoms: C_21  and  O_22
                            x       y       z     vdW  Elec       q    Type
                         _______ _______ _______ _____ _____    ______ ____

>  <TORSDO>
F 7

>  <SCORE>
-6.808

>  <RMSD_LB>
2.826

>  <RMSD_UB>
4.219

$$$$
CHEMBL80858
 OpenBabel10162523413D

 24 25  0  0  0  0  0  0  0  0999 V2000
  144.9130  141.4930  150.1220 N   0  0  0  0  0  0  0  0  0  0  0  0
  146.1550  141.5480  149.5310 C   0  0  0  0  0  0  0  0  0  0  0  0
  146.6130  140.6410  148.8440 O   0  0  0  0  0  0  0  0  0  0  0  0
  144.6100  142.2570  150.6640 H   0  0  0  0  0  0  0  0  0  0  0  0
  144.0380  140.3490  149.9740 C   0  0  0  0  0  2  0  0  0  0  0  0
  145.1290  137.3580  152.0960 C   0  0  0  0  0  0  0  0  0  0  0  0
  145.0380  138.2830  151.0490 C   0  0  0  0  0  3  0  0  0  0  0  0
  144.1680  139.3860  151.1300 C   0  0  0  0  0  0  0  0  0  0  0  0
  143.3830  139.5490  152.2800 C   0  0  0  0  0  3  0  0  0  0  0  0
  143.4650  138.6340  153.3310 C   0  0  0  0  0  3  0  0  0  0  0  0
  144.3330  137.5480  153.2330 C   0  0  0  0  0  0  0  0  0  0  0  0
  146.3890  135.7610  150.8480 C   0  0  0  0  0  1  0  0  0  0  0  0
  145.9410  136.2540  152.1020 O   0  0  0  0  0  0  0  0  0  0  0  0
  144.4080  136.6440  154.2590 O   0  0  0  0  0  0  0  0  0  0  0  0
  145.1520  136.6430  154.8290 H   0  0  0  0  0  0  0  0  0  0  0  0
  146.9310  142.8110  149.8460 C   0  0  0  0  0  2  0  0  0  0  0  0
  148.1240  142.5030  150.7490 C   0  0  0  0  0  2  0  0  0  0  0  0
  147.7450  141.6540  151.9380 C   0  0  0  0  0  0  0  0  0  0  0  0
  146.8650  142.1520  152.9110 C   0  0  0  0  0  3  0  0  0  0  0  0
  146.4990  141.3660  154.0050 C   0  0  0  0  0  3  0  0  0  0  0  0
  147.0140  140.0790  154.1370 C   0  0  0  0  0  0  0  0  0  0  0  0
  146.5580  139.1080  155.4810 Cl  0  0  0  0  0  0  0  0  0  0  0  0
  147.8950  139.5730  153.1840 C   0  0  0  0  0  3  0  0  0  0  0  0
  148.2620  140.3590  152.0880 C   0  0  0  0  0  3  0  0  0  0  0  0
  1  4  1  0  0  0  0
  2 16  1  0  0  0  0
  2  1  1  0  0  0  0
  3  2  2  0  0  0  0
  5  1  1  0  0  0  0
  5  8  1  0  0  0  0
  6 13  1  0  0  0  0
  6 11  1  0  0  0  0
  7  8  1  0  0  0  0
  7  6  2  0  0  0  0
  8  9  2  0  0  0  0
  9 10  1  0  0  0  0
 11 10  2  0  0  0  0
 11 14  1  0  0  0  0
 12 13  1  0  0  0  0
 14 15  1  0  0  0  0
 16 17  1  0  0  0  0
 17 18  1  0  0  0  0
 18 24  2  0  0  0  0
 18 19  1  0  0  0  0
 19 20  2  0  0  0  0
 20 21  1  0  0  0  0
 21 22  1  0  0  0  0
 23 21  2  0  0  0  0
 24 23  1  0  0  0  0
M  END
>  <MODEL>
3

>  <REMARK>
 VINA RESULT:    -6.779      2.596      3.730
 INTER + INTRA:         -10.936
 INTER:                  -9.188
 INTRA:                  -1.748
 UNBOUND:                -1.581
  Name = CHEMBL80858
  8 active torsions:
  status: ('A' for Active; 'I' for Inactive)
    1  A    between atoms: C_1  and  O_2
    2  A    between atoms: O_2  and  C_3
    3  A    between atoms: C_5  and  C_6
    4  A    between atoms: C_6  and  N_7
    5  A    between atoms: C_8  and  C_10
    6  A    between atoms: C_10  and  C_11
    7  A    between atoms: C_11  and  C_12
    8  A    between atoms: C_21  and  O_22
                            x       y       z     vdW  Elec       q    Type
                         _______ _______ _______ _____ _____    ______ ____

>  <TORSDO>
F 7

>  <SCORE>
-6.779

>  <RMSD_LB>
2.596

>  <RMSD_UB>
3.730

$$$$
CHEMBL80858
 OpenBabel10162523413D

 24 25  0  0  0  0  0  0  0  0999 V2000
  138.3220  137.1480  155.7320 N   0  0  0  0  0  0  0  0  0  0  0  0
  137.9580  138.1760  154.8920 C   0  0  0  0  0  0  0  0  0  0  0  0
  137.1880  139.0720  155.2220 O   0  0  0  0  0  0  0  0  0  0  0  0
  138.9430  136.4600  155.4000 H   0  0  0  0  0  0  0  0  0  0  0  0
  137.8220  137.0450  157.0870 C   0  0  0  0  0  2  0  0  0  0  0  0
  134.7770  134.9570  156.0860 C   0  0  0  0  0  0  0  0  0  0  0  0
  135.9280  135.7510  156.0110 C   0  0  0  0  0  3  0  0  0  0  0  0
  136.6140  136.1450  157.1750 C   0  0  0  0  0  0  0  0  0  0  0  0
  136.1250  135.7330  158.4230 C   0  0  0  0  0  3  0  0  0  0  0  0
  134.9800  134.9400  158.5110 C   0  0  0  0  0  3  0  0  0  0  0  0
  134.3150  134.5600  157.3470 C   0  0  0  0  0  0  0  0  0  0  0  0
  134.7130  134.4110  153.7630 C   0  0  0  0  0  1  0  0  0  0  0  0
  134.0430  134.5330  155.0100 O   0  0  0  0  0  0  0  0  0  0  0  0
  133.1840  133.7900  157.4320 O   0  0  0  0  0  0  0  0  0  0  0  0
  132.4730  134.0600  157.9790 H   0  0  0  0  0  0  0  0  0  0  0  0
  138.5550  138.0760  153.5020 C   0  0  0  0  0  2  0  0  0  0  0  0
  140.0530  138.3740  153.5350 C   0  0  0  0  0  2  0  0  0  0  0  0
  140.7820  137.8030  152.3430 C   0  0  0  0  0  0  0  0  0  0  0  0
  142.1700  137.6070  152.3900 C   0  0  0  0  0  3  0  0  0  0  0  0
  142.8480  137.0640  151.2960 C   0  0  0  0  0  3  0  0  0  0  0  0
  142.1420  136.7190  150.1460 C   0  0  0  0  0  0  0  0  0  0  0  0
  142.9750  136.0450  148.8010 Cl  0  0  0  0  0  0  0  0  0  0  0  0
  140.7640  136.9150  150.0810 C   0  0  0  0  0  3  0  0  0  0  0  0
  140.0860  137.4580  151.1750 C   0  0  0  0  0  3  0  0  0  0  0  0
  1  5  1  0  0  0  0
  2  3  2  0  0  0  0
  2  1  1  0  0  0  0
  4  1  1  0  0  0  0
  5  8  1  0  0  0  0
  6 11  1  0  0  0  0
  7  6  2  0  0  0  0
  7  8  1  0  0  0  0
  8  9  2  0  0  0  0
  9 10  1  0  0  0  0
 11 14  1  0  0  0  0
 11 10  2  0  0  0  0
 12 13  1  0  0  0  0
 13  6  1  0  0  0  0
 14 15  1  0  0  0  0
 16 17  1  0  0  0  0
 16  2  1  0  0  0  0
 18 19  1  0  0  0  0
 18 17  1  0  0  0  0
 20 19  2  0  0  0  0
 21 20  1  0  0  0  0
 22 21  1  0  0  0  0
 23 21  2  0  0  0  0
 23 24  1  0  0  0  0
 24 18  2  0  0  0  0
M  END
>  <MODEL>
4

>  <REMARK>
 VINA RESULT:    -6.750      7.822      9.807
 INTER + INTRA:         -10.896
 INTER:                 -10.449
 INTRA:                  -0.448
 UNBOUND:                -1.581
  Name = CHEMBL80858
  8 active torsions:
  status: ('A' for Active; 'I' for Inactive)
    1  A    between atoms: C_1  and  O_2
    2  A    between atoms: O_2  and  C_3
    3  A    between atoms: C_5  and  C_6
    4  A    between atoms: C_6  and  N_7
    5  A    between atoms: C_8  and  C_10
    6  A    between atoms: C_10  and  C_11
    7  A    between atoms: C_11  and  C_12
    8  A    between atoms: C_21  and  O_22
                            x       y       z     vdW  Elec       q    Type
                         _______ _______ _______ _____ _____    ______ ____

>  <TORSDO>
F 7

>  <SCORE>
-6.750

>  <RMSD_LB>
7.822

>  <RMSD_UB>
9.807

$$$$
CHEMBL80858
 OpenBabel10162523413D

 24 25  0  0  0  0  0  0  0  0999 V2000
  146.8660  139.6130  154.9370 N   0  0  0  0  0  0  0  0  0  0  0  0
  148.1240  140.0180  154.5510 C   0  0  0  0  0  0  0  0  0  0  0  0
  149.0210  139.2350  154.2600 O   0  0  0  0  0  0  0  0  0  0  0  0
  146.1940  140.2970  155.1590 H   0  0  0  0  0  0  0  0  0  0  0  0
  146.5000  138.2150  155.0280 C   0  0  0  0  0  2  0  0  0  0  0  0
  143.7170  137.3460  152.5520 C   0  0  0  0  0  0  0  0  0  0  0  0
  144.3890  137.8310  153.6800 C   0  0  0  0  0  3  0  0  0  0  0  0
  145.7890  137.7360  153.7850 C   0  0  0  0  0  0  0  0  0  0  0  0
  146.5110  137.1410  152.7400 C   0  0  0  0  0  3  0  0  0  0  0  0
  145.8520  136.6540  151.6100 C   0  0  0  0  0  3  0  0  0  0  0  0
  144.4650  136.7580  151.5240 C   0  0  0  0  0  0  0  0  0  0  0  0
  141.5820  138.0530  153.3510 C   0  0  0  0  0  1  0  0  0  0  0  0
  142.3600  137.3890  152.3660 O   0  0  0  0  0  0  0  0  0  0  0  0
  143.8150  136.2710  150.4200 O   0  0  0  0  0  0  0  0  0  0  0  0
  144.0980  135.4690  150.0250 H   0  0  0  0  0  0  0  0  0  0  0  0
  148.3170  141.5210  154.5630 C   0  0  0  0  0  2  0  0  0  0  0  0
  147.0560  142.2330  154.0770 C   0  0  0  0  0  2  0  0  0  0  0  0
  146.9090  142.1890  152.5760 C   0  0  0  0  0  0  0  0  0  0  0  0
  148.0460  142.1460  151.7550 C   0  0  0  0  0  3  0  0  0  0  0  0
  147.9160  142.0910  150.3660 C   0  0  0  0  0  3  0  0  0  0  0  0
  146.6490  142.0820  149.7880 C   0  0  0  0  0  0  0  0  0  0  0  0
  146.4880  142.0070  148.0770 Cl  0  0  0  0  0  0  0  0  0  0  0  0
  145.5100  142.1330  150.5890 C   0  0  0  0  0  3  0  0  0  0  0  0
  145.6400  142.1880  151.9790 C   0  0  0  0  0  3  0  0  0  0  0  0
  1  5  1  0  0  0  0
  1  4  1  0  0  0  0
  2 16  1  0  0  0  0
  2  1  1  0  0  0  0
  3  2  2  0  0  0  0
  6  7  1  0  0  0  0
  7  8  2  0  0  0  0
  8  5  1  0  0  0  0
  9  8  1  0  0  0  0
 10  9  2  0  0  0  0
 11 10  1  0  0  0  0
 11  6  2  0  0  0  0
 13  6  1  0  0  0  0
 13 12  1  0  0  0  0
 14 11  1  0  0  0  0
 15 14  1  0  0  0  0
 17 16  1  0  0  0  0
 18 17  1  0  0  0  0
 19 18  2  0  0  0  0
 20 19  1  0  0  0  0
 21 20  2  0  0  0  0
 21 23  1  0  0  0  0
 22 21  1  0  0  0  0
 23 24  2  0  0  0  0
 24 18  1  0  0  0  0
M  END
>  <MODEL>
5

>  <REMARK>
 VINA RESULT:    -6.453      1.342      2.355
 INTER + INTRA:         -10.486
 INTER:                  -9.582
 INTRA:                  -0.903
 UNBOUND:                -1.581
  Name = CHEMBL80858
  8 active torsions:
  status: ('A' for Active; 'I' for Inactive)
    1  A    between atoms: C_1  and  O_2
    2  A    between atoms: O_2  and  C_3
    3  A    between atoms: C_5  and  C_6
    4  A    between atoms: C_6  and  N_7
    5  A    between atoms: C_8  and  C_10
    6  A    between atoms: C_10  and  C_11
    7  A    between atoms: C_11  and  C_12
    8  A    between atoms: C_21  and  O_22
                            x       y       z     vdW  Elec       q    Type
                         _______ _______ _______ _____ _____    ______ ____

>  <TORSDO>
F 7

>  <SCORE>
-6.453

>  <RMSD_LB>
1.342

>  <RMSD_UB>
2.355

$$$$
CHEMBL80858
 OpenBabel10162523413D

 24 25  0  0  0  0  0  0  0  0999 V2000
  144.0020  139.4880  150.0320 N   0  0  0  0  0  0  0  0  0  0  0  0
  142.7220  139.2330  149.5930 C   0  0  0  0  0  0  0  0  0  0  0  0
  141.9050  140.1160  149.3570 O   0  0  0  0  0  0  0  0  0  0  0  0
  144.6050  138.7290  150.2050 H   0  0  0  0  0  0  0  0  0  0  0  0
  144.4890  140.8340  150.2480 C   0  0  0  0  0  2  0  0  0  0  0  0
  146.5780  139.8280  153.2910 C   0  0  0  0  0  0  0  0  0  0  0  0
  145.7820  139.7550  152.1410 C   0  0  0  0  0  3  0  0  0  0  0  0
  145.3910  140.9200  151.4560 C   0  0  0  0  0  0  0  0  0  0  0  0
  145.8080  142.1670  151.9430 C   0  0  0  0  0  3  0  0  0  0  0  0
  146.6020  142.2530  153.0870 C   0  0  0  0  0  3  0  0  0  0  0  0
  146.9800  141.0880  153.7520 C   0  0  0  0  0  0  0  0  0  0  0  0
  146.0180  137.8140  154.4430 C   0  0  0  0  0  1  0  0  0  0  0  0
  147.0000  138.7510  154.0250 O   0  0  0  0  0  0  0  0  0  0  0  0
  147.7520  141.1710  154.8820 O   0  0  0  0  0  0  0  0  0  0  0  0
  148.2830  140.4440  155.1400 H   0  0  0  0  0  0  0  0  0  0  0  0
  142.3940  137.7580  149.4740 C   0  0  0  0  0  2  0  0  0  0  0  0
  142.5110  137.0670  150.8320 C   0  0  0  0  0  2  0  0  0  0  0  0
  141.4190  137.4800  151.7870 C   0  0  0  0  0  0  0  0  0  0  0  0
  140.0770  137.4560  151.3800 C   0  0  0  0  0  3  0  0  0  0  0  0
  139.0600  137.8230  152.2650 C   0  0  0  0  0  3  0  0  0  0  0  0
  139.3800  138.2210  153.5600 C   0  0  0  0  0  0  0  0  0  0  0  0
  138.1290  138.6670  154.6520 Cl  0  0  0  0  0  0  0  0  0  0  0  0
  140.7090  138.2580  153.9770 C   0  0  0  0  0  3  0  0  0  0  0  0
  141.7260  137.8910  153.0920 C   0  0  0  0  0  3  0  0  0  0  0  0
  1  4  1  0  0  0  0
  1  5  1  0  0  0  0
  2  1  1  0  0  0  0
  3  2  2  0  0  0  0
  5  8  1  0  0  0  0
  6 11  1  0  0  0  0
  6 13  1  0  0  0  0
  7  6  2  0  0  0  0
  8  9  2  0  0  0  0
  8  7  1  0  0  0  0
  9 10  1  0  0  0  0
 10 11  2  0  0  0  0
 11 14  1  0  0  0  0
 13 12  1  0  0  0  0
 14 15  1  0  0  0  0
 16  2  1  0  0  0  0
 16 17  1  0  0  0  0
 17 18  1  0  0  0  0
 18 24  1  0  0  0  0
 19 18  2  0  0  0  0
 19 20  1  0  0  0  0
 20 21  2  0  0  0  0
 21 23  1  0  0  0  0
 21 22  1  0  0  0  0
 24 23  2  0  0  0  0
M  END
>  <MODEL>
6

>  <REMARK>
 VINA RESULT:    -6.419      3.294      6.431
 INTER + INTRA:         -10.439
 INTER:                  -9.524
 INTRA:                  -0.916
 UNBOUND:                -1.581
  Name = CHEMBL80858
  8 active torsions:
  status: ('A' for Active; 'I' for Inactive)
    1  A    between atoms: C_1  and  O_2
    2  A    between atoms: O_2  and  C_3
    3  A    between atoms: C_5  and  C_6
    4  A    between atoms: C_6  and  N_7
    5  A    between atoms: C_8  and  C_10
    6  A    between atoms: C_10  and  C_11
    7  A    between atoms: C_11  and  C_12
    8  A    between atoms: C_21  and  O_22
                            x       y       z     vdW  Elec       q    Type
                         _______ _______ _______ _____ _____    ______ ____

>  <TORSDO>
F 7

>  <SCORE>
-6.419

>  <RMSD_LB>
3.294

>  <RMSD_UB>
6.431

$$$$
CHEMBL80858
 OpenBabel10162523413D

 24 25  0  0  0  0  0  0  0  0999 V2000
  135.2080  134.6490  152.2130 N   0  0  0  0  0  0  0  0  0  0  0  0
  135.2550  135.7910  152.9810 C   0  0  0  0  0  0  0  0  0  0  0  0
  134.2550  136.3450  153.4220 O   0  0  0  0  0  0  0  0  0  0  0  0
  136.0520  134.2590  151.8890 H   0  0  0  0  0  0  0  0  0  0  0  0
  133.9600  134.0040  151.8670 C   0  0  0  0  0  2  0  0  0  0  0  0
  133.1280  134.7020  148.1990 C   0  0  0  0  0  0  0  0  0  0  0  0
  133.3150  134.8730  149.5760 C   0  0  0  0  0  3  0  0  0  0  0  0
  133.8110  133.8270  150.3750 C   0  0  0  0  0  0  0  0  0  0  0  0
  134.1170  132.5970  149.7730 C   0  0  0  0  0  3  0  0  0  0  0  0
  133.9350  132.4140  148.4010 C   0  0  0  0  0  3  0  0  0  0  0  0
  133.4430  133.4630  147.6260 C   0  0  0  0  0  0  0  0  0  0  0  0
  132.5930  136.9970  147.8190 C   0  0  0  0  0  1  0  0  0  0  0  0
  132.6450  135.6590  147.3460 O   0  0  0  0  0  0  0  0  0  0  0  0
  133.2550  133.2820  146.2800 O   0  0  0  0  0  0  0  0  0  0  0  0
  133.2820  134.0180  145.7010 H   0  0  0  0  0  0  0  0  0  0  0  0
  136.6550  136.3340  153.1910 C   0  0  0  0  0  2  0  0  0  0  0  0
  136.8840  136.6840  154.6610 C   0  0  0  0  0  2  0  0  0  0  0  0
  138.2180  137.3480  154.8960 C   0  0  0  0  0  0  0  0  0  0  0  0
  138.9190  137.1260  156.0910 C   0  0  0  0  0  3  0  0  0  0  0  0
  140.1610  137.7260  156.3070 C   0  0  0  0  0  3  0  0  0  0  0  0
  140.7080  138.5570  155.3330 C   0  0  0  0  0  0  0  0  0  0  0  0
  142.2410  139.2910  155.5960 Cl  0  0  0  0  0  0  0  0  0  0  0  0
  140.0210  138.7940  154.1440 C   0  0  0  0  0  3  0  0  0  0  0  0
  138.7780  138.1940  153.9270 C   0  0  0  0  0  3  0  0  0  0  0  0
  1  2  1  0  0  0  0
  2 16  1  0  0  0  0
  2  3  2  0  0  0  0
  4  1  1  0  0  0  0
  5  1  1  0  0  0  0
  6  7  1  0  0  0  0
  7  8  2  0  0  0  0
  8  5  1  0  0  0  0
  9  8  1  0  0  0  0
 10  9  2  0  0  0  0
 11  6  2  0  0  0  0
 11 10  1  0  0  0  0
 13 12  1  0  0  0  0
 13  6  1  0  0  0  0
 14 11  1  0  0  0  0
 15 14  1  0  0  0  0
 16 17  1  0  0  0  0
 17 18  1  0  0  0  0
 18 19  1  0  0  0  0
 19 20  2  0  0  0  0
 21 22  1  0  0  0  0
 21 20  1  0  0  0  0
 23 21  2  0  0  0  0
 24 23  1  0  0  0  0
 24 18  2  0  0  0  0
M  END
>  <MODEL>
7

>  <REMARK>
 VINA RESULT:    -6.377      9.583     12.081
 INTER + INTRA:         -10.381
 INTER:                  -9.933
 INTRA:                  -0.449
 UNBOUND:                -1.581
  Name = CHEMBL80858
  8 active torsions:
  status: ('A' for Active; 'I' for Inactive)
    1  A    between atoms: C_1  and  O_2
    2  A    between atoms: O_2  and  C_3
    3  A    between atoms: C_5  and  C_6
    4  A    between atoms: C_6  and  N_7
    5  A    between atoms: C_8  and  C_10
    6  A    between atoms: C_10  and  C_11
    7  A    between atoms: C_11  and  C_12
    8  A    between atoms: C_21  and  O_22
                            x       y       z     vdW  Elec       q    Type
                         _______ _______ _______ _____ _____    ______ ____

>  <TORSDO>
F 7

>  <SCORE>
-6.377

>  <RMSD_LB>
9.583

>  <RMSD_UB>
12.081

$$$$
CHEMBL80858
 OpenBabel10162523413D

 24 25  0  0  0  0  0  0  0  0999 V2000
  146.0520  139.1490  149.4680 N   0  0  0  0  0  0  0  0  0  0  0  0
  144.7530  138.9230  149.0700 C   0  0  0  0  0  0  0  0  0  0  0  0
  143.9420  139.8230  148.8820 O   0  0  0  0  0  0  0  0  0  0  0  0
  146.6480  138.3770  149.6030 H   0  0  0  0  0  0  0  0  0  0  0  0
  146.5670  140.4820  149.6970 C   0  0  0  0  0  2  0  0  0  0  0  0
  147.5150  139.7990  153.3390 C   0  0  0  0  0  0  0  0  0  0  0  0
  146.9610  139.6610  152.0610 C   0  0  0  0  0  3  0  0  0  0  0  0
  147.2120  140.6120  151.0550 C   0  0  0  0  0  0  0  0  0  0  0  0
  148.0290  141.7130  151.3510 C   0  0  0  0  0  3  0  0  0  0  0  0
  148.5890  141.8620  152.6210 C   0  0  0  0  0  3  0  0  0  0  0  0
  148.3280  140.9080  153.6040 C   0  0  0  0  0  0  0  0  0  0  0  0
  146.0620  138.9590  155.0360 C   0  0  0  0  0  1  0  0  0  0  0  0
  147.3210  138.9280  154.3790 O   0  0  0  0  0  0  0  0  0  0  0  0
  148.8690  141.0580  154.8540 O   0  0  0  0  0  0  0  0  0  0  0  0
  149.1540  141.9030  155.1430 H   0  0  0  0  0  0  0  0  0  0  0  0
  144.3990  137.4560  148.9290 C   0  0  0  0  0  2  0  0  0  0  0  0
  144.5080  136.7420  150.2760 C   0  0  0  0  0  2  0  0  0  0  0  0
  143.3810  137.0990  151.2130 C   0  0  0  0  0  0  0  0  0  0  0  0
  143.6530  137.4710  152.5380 C   0  0  0  0  0  3  0  0  0  0  0  0
  142.6140  137.8160  153.4050 C   0  0  0  0  0  3  0  0  0  0  0  0
  141.2970  137.7880  152.9550 C   0  0  0  0  0  0  0  0  0  0  0  0
  140.0180  138.2200  154.0200 Cl  0  0  0  0  0  0  0  0  0  0  0  0
  141.0100  137.4130  151.6440 C   0  0  0  0  0  3  0  0  0  0  0  0
  142.0490  137.0670  150.7760 C   0  0  0  0  0  3  0  0  0  0  0  0
  1  4  1  0  0  0  0
  1  5  1  0  0  0  0
  2  1  1  0  0  0  0
  3  2  2  0  0  0  0
  5  8  1  0  0  0  0
  6 11  1  0  0  0  0
  6 13  1  0  0  0  0
  7  6  2  0  0  0  0
  8  9  2  0  0  0  0
  8  7  1  0  0  0  0
  9 10  1  0  0  0  0
 10 11  2  0  0  0  0
 11 14  1  0  0  0  0
 13 12  1  0  0  0  0
 14 15  1  0  0  0  0
 16  2  1  0  0  0  0
 16 17  1  0  0  0  0
 17 18  1  0  0  0  0
 18 19  1  0  0  0  0
 19 20  2  0  0  0  0
 21 20  1  0  0  0  0
 21 22  1  0  0  0  0
 23 21  2  0  0  0  0
 24 18  2  0  0  0  0
 24 23  1  0  0  0  0
M  END
>  <MODEL>
8

>  <REMARK>
 VINA RESULT:    -6.233      2.587      5.946
 INTER + INTRA:         -10.182
 INTER:                  -9.073
 INTRA:                  -1.110
 UNBOUND:                -1.581
  Name = CHEMBL80858
  8 active torsions:
  status: ('A' for Active; 'I' for Inactive)
    1  A    between atoms: C_1  and  O_2
    2  A    between atoms: O_2  and  C_3
    3  A    between atoms: C_5  and  C_6
    4  A    between atoms: C_6  and  N_7
    5  A    between atoms: C_8  and  C_10
    6  A    between atoms: C_10  and  C_11
    7  A    between atoms: C_11  and  C_12
    8  A    between atoms: C_21  and  O_22
                            x       y       z     vdW  Elec       q    Type
                         _______ _______ _______ _____ _____    ______ ____

>  <TORSDO>
F 7

>  <SCORE>
-6.233

>  <RMSD_LB>
2.587

>  <RMSD_UB>
5.946

$$$$
CHEMBL80858
 OpenBabel10162523413D

 24 25  0  0  0  0  0  0  0  0999 V2000
  147.4090  138.0330  152.6070 N   0  0  0  0  0  0  0  0  0  0  0  0
  147.2680  138.4190  153.9210 C   0  0  0  0  0  0  0  0  0  0  0  0
  146.2200  138.3030  154.5460 O   0  0  0  0  0  0  0  0  0  0  0  0
  148.2800  138.1590  152.1650 H   0  0  0  0  0  0  0  0  0  0  0  0
  146.3190  137.4490  151.8540 C   0  0  0  0  0  2  0  0  0  0  0  0
  144.0850  139.4270  149.4610 C   0  0  0  0  0  0  0  0  0  0  0  0
  144.5120  138.6400  150.5370 C   0  0  0  0  0  3  0  0  0  0  0  0
  145.8750  138.3410  150.7210 C   0  0  0  0  0  0  0  0  0  0  0  0
  146.8100  138.8410  149.8030 C   0  0  0  0  0  3  0  0  0  0  0  0
  146.3970  139.6280  148.7260 C   0  0  0  0  0  3  0  0  0  0  0  0
  145.0430  139.9130  148.5610 C   0  0  0  0  0  0  0  0  0  0  0  0
  141.9370  140.0290  150.3090 C   0  0  0  0  0  1  0  0  0  0  0  0
  142.7830  139.7630  149.1990 O   0  0  0  0  0  0  0  0  0  0  0  0
  144.6350  140.6770  147.4990 O   0  0  0  0  0  0  0  0  0  0  0  0
  145.2600  140.9720  146.8670 H   0  0  0  0  0  0  0  0  0  0  0  0
  148.5130  139.0500  154.5140 C   0  0  0  0  0  2  0  0  0  0  0  0
  148.3250  140.5560  154.6910 C   0  0  0  0  0  2  0  0  0  0  0  0
  147.8260  141.2280  153.4350 C   0  0  0  0  0  0  0  0  0  0  0  0
  148.6790  141.3930  152.3350 C   0  0  0  0  0  3  0  0  0  0  0  0
  148.2190  142.0010  151.1650 C   0  0  0  0  0  3  0  0  0  0  0  0
  146.9030  142.4520  151.0900 C   0  0  0  0  0  0  0  0  0  0  0  0
  146.3330  143.1940  149.6480 Cl  0  0  0  0  0  0  0  0  0  0  0  0
  146.0450  142.3030  152.1780 C   0  0  0  0  0  3  0  0  0  0  0  0
  146.5060  141.6940  153.3490 C   0  0  0  0  0  3  0  0  0  0  0  0
  1  2  1  0  0  0  0
  2 16  1  0  0  0  0
  2  3  2  0  0  0  0
  4  1  1  0  0  0  0
  5  1  1  0  0  0  0
  6  7  1  0  0  0  0
  7  8  2  0  0  0  0
  8  5  1  0  0  0  0
  9  8  1  0  0  0  0
 10  9  2  0  0  0  0
 11 10  1  0  0  0  0
 11  6  2  0  0  0  0
 13  6  1  0  0  0  0
 13 12  1  0  0  0  0
 14 11  1  0  0  0  0
 15 14  1  0  0  0  0
 16 17  1  0  0  0  0
 18 17  1  0  0  0  0
 19 18  2  0  0  0  0
 20 19  1  0  0  0  0
 21 20  2  0  0  0  0
 21 23  1  0  0  0  0
 22 21  1  0  0  0  0
 23 24  2  0  0  0  0
 24 18  1  0  0  0  0
M  END
>  <MODEL>
9

>  <REMARK>
 VINA RESULT:    -6.227      2.339      3.670
 INTER + INTRA:         -10.175
 INTER:                  -8.594
 INTRA:                  -1.581
 UNBOUND:                -1.581
  Name = CHEMBL80858
  8 active torsions:
  status: ('A' for Active; 'I' for Inactive)
    1  A    between atoms: C_1  and  O_2
    2  A    between atoms: O_2  and  C_3
    3  A    between atoms: C_5  and  C_6
    4  A    between atoms: C_6  and  N_7
    5  A    between atoms: C_8  and  C_10
    6  A    between atoms: C_10  and  C_11
    7  A    between atoms: C_11  and  C_12
    8  A    between atoms: C_21  and  O_22
                            x       y       z     vdW  Elec       q    Type
                         _______ _______ _______ _____ _____    ______ ____

>  <TORSDO>
F 7

>  <SCORE>
-6.227

>  <RMSD_LB>
2.339

>  <RMSD_UB>
3.670

$$$$
