CHEMBL4456120
 OpenBabel10162523393D

 25 26  0  0  0  0  0  0  0  0999 V2000
  139.2950  138.4830  154.5600 C   0  0  0  0  0  0  0  0  0  0  0  0
  138.7650  139.5780  154.4210 O   0  0  0  0  0  0  0  0  0  0  0  0
  138.7210  137.4170  155.2090 N   0  0  0  0  0  0  0  0  0  0  0  0
  139.2220  136.5720  155.2750 H   0  0  0  0  0  0  0  0  0  0  0  0
  140.8150  137.7830  152.7600 C   0  0  0  0  0  3  0  0  0  0  0  0
  140.6520  138.1750  154.0370 C   0  0  0  0  0  3  0  0  0  0  0  0
  144.6460  136.9140  151.0130 C   0  0  0  0  0  0  0  0  0  0  0  0
  143.4880  136.7460  150.2600 C   0  0  0  0  0  3  0  0  0  0  0  0
  142.2330  137.0180  150.8230 C   0  0  0  0  0  3  0  0  0  0  0  0
  142.1130  137.4550  152.1480 C   0  0  0  0  0  0  0  0  0  0  0  0
  143.2850  137.6390  152.8930 C   0  0  0  0  0  3  0  0  0  0  0  0
  144.5390  137.3650  152.3300 C   0  0  0  0  0  3  0  0  0  0  0  0
  146.9570  136.7930  151.5570 C   0  0  0  0  0  1  0  0  0  0  0  0
  145.9250  136.6800  150.5850 O   0  0  0  0  0  0  0  0  0  0  0  0
  137.4030  137.4990  155.7990 C   0  0  0  0  0  2  0  0  0  0  0  0
  136.4740  136.4350  155.2730 C   0  0  0  0  0  0  0  0  0  0  0  0
  136.4890  136.1040  153.9130 C   0  0  0  0  0  3  0  0  0  0  0  0
  135.6150  135.1410  153.4070 C   0  0  0  0  0  3  0  0  0  0  0  0
  134.7280  134.4790  154.2590 C   0  0  0  0  0  0  0  0  0  0  0  0
  134.7230  134.7640  155.6290 C   0  0  0  0  0  0  0  0  0  0  0  0
  135.5870  135.7550  156.1220 C   0  0  0  0  0  3  0  0  0  0  0  0
  133.8580  133.5730  153.7200 O   0  0  0  0  0  0  0  0  0  0  0  0
  133.3090  133.8200  153.0020 H   0  0  0  0  0  0  0  0  0  0  0  0
  133.9120  134.2080  156.5830 O   0  0  0  0  0  0  0  0  0  0  0  0
  134.1060  134.6660  157.9170 C   0  0  0  0  0  1  0  0  0  0  0  0
  1  3  1  0  0  0  0
  2  1  2  0  0  0  0
  3  4  1  0  0  0  0
  3 15  1  0  0  0  0
  5  6  2  0  0  0  0
  6  1  1  0  0  0  0
  7 12  1  0  0  0  0
  8  9  1  0  0  0  0
  8  7  2  0  0  0  0
  9 10  2  0  0  0  0
 10  5  1  0  0  0  0
 10 11  1  0  0  0  0
 12 11  2  0  0  0  0
 14  7  1  0  0  0  0
 14 13  1  0  0  0  0
 16 15  1  0  0  0  0
 16 21  1  0  0  0  0
 17 16  2  0  0  0  0
 18 17  1  0  0  0  0
 18 19  2  0  0  0  0
 19 20  1  0  0  0  0
 20 21  2  0  0  0  0
 20 24  1  0  0  0  0
 22 19  1  0  0  0  0
 23 22  1  0  0  0  0
 24 25  1  0  0  0  0
M  END
>  <MODEL>
1

>  <REMARK>
 VINA RESULT:    -7.418      0.000      0.000
 INTER + INTRA:         -10.708
 INTER:                 -10.131
 INTRA:                  -0.576
 UNBOUND:                -0.471
  Name = CHEMBL4456120
  9 active torsions:
  status: ('A' for Active; 'I' for Inactive)
    1  A    between atoms: C_1  and  O_2
    2  A    between atoms: O_2  and  C_3
    3  A    between atoms: C_6  and  C_7
    4  A    between atoms: C_8  and  C_9
    5  A    between atoms: N_11  and  C_12
    6  A    between atoms: C_12  and  C_13
    7  A    between atoms: C_16  and  O_17
    8  A    between atoms: C_18  and  O_19
    9  A    between atoms: O_19  and  C_20
                            x       y       z     vdW  Elec       q    Type
                         _______ _______ _______ _____ _____    ______ ____

>  <TORSDO>
F 7

>  <SCORE>
-7.418

>  <RMSD_LB>
0.000

>  <RMSD_UB>
0.000

$$$$
CHEMBL4456120
 OpenBabel10162523393D

 25 26  0  0  0  0  0  0  0  0999 V2000
  137.1760  136.8390  151.8280 C   0  0  0  0  0  0  0  0  0  0  0  0
  137.9770  137.6320  151.3480 O   0  0  0  0  0  0  0  0  0  0  0  0
  136.3360  136.0400  151.0920 N   0  0  0  0  0  0  0  0  0  0  0  0
  135.7220  135.4310  151.5630 H   0  0  0  0  0  0  0  0  0  0  0  0
  136.0560  135.8330  153.7710 C   0  0  0  0  0  3  0  0  0  0  0  0
  137.0130  136.6500  153.2930 C   0  0  0  0  0  3  0  0  0  0  0  0
  135.4500  135.0650  157.9570 C   0  0  0  0  0  0  0  0  0  0  0  0
  134.5180  134.6120  157.0280 C   0  0  0  0  0  3  0  0  0  0  0  0
  134.7010  134.8640  155.6610 C   0  0  0  0  0  3  0  0  0  0  0  0
  135.8140  135.5810  155.2010 C   0  0  0  0  0  0  0  0  0  0  0  0
  136.7560  136.0170  156.1410 C   0  0  0  0  0  3  0  0  0  0  0  0
  136.5700  135.7650  157.5070 C   0  0  0  0  0  3  0  0  0  0  0  0
  136.5340  134.3380  159.9430 C   0  0  0  0  0  1  0  0  0  0  0  0
  135.3850  134.8890  159.3130 O   0  0  0  0  0  0  0  0  0  0  0  0
  136.3260  136.0650  149.6460 C   0  0  0  0  0  2  0  0  0  0  0  0
  135.1080  135.3880  149.0710 C   0  0  0  0  0  0  0  0  0  0  0  0
  134.8900  134.0250  149.3020 C   0  0  0  0  0  3  0  0  0  0  0  0
  133.7820  133.3790  148.7530 C   0  0  0  0  0  3  0  0  0  0  0  0
  132.8630  134.0940  147.9820 C   0  0  0  0  0  0  0  0  0  0  0  0
  133.0380  135.4660  147.7690 C   0  0  0  0  0  0  0  0  0  0  0  0
  134.1710  136.0980  148.3040 C   0  0  0  0  0  3  0  0  0  0  0  0
  131.8130  133.4180  147.4250 O   0  0  0  0  0  0  0  0  0  0  0  0
  130.9860  133.8440  147.3170 H   0  0  0  0  0  0  0  0  0  0  0  0
  132.2320  136.2950  147.0340 O   0  0  0  0  0  0  0  0  0  0  0  0
  132.8440  137.4740  146.5230 C   0  0  0  0  0  1  0  0  0  0  0  0
  1  6  1  0  0  0  0
  2  1  2  0  0  0  0
  3  4  1  0  0  0  0
  3  1  1  0  0  0  0
  5 10  1  0  0  0  0
  6  5  2  0  0  0  0
  7 14  1  0  0  0  0
  8  7  2  0  0  0  0
  9  8  1  0  0  0  0
 10  9  2  0  0  0  0
 10 11  1  0  0  0  0
 11 12  2  0  0  0  0
 12  7  1  0  0  0  0
 14 13  1  0  0  0  0
 15  3  1  0  0  0  0
 16 17  1  0  0  0  0
 16 15  1  0  0  0  0
 18 17  2  0  0  0  0
 19 18  1  0  0  0  0
 20 19  2  0  0  0  0
 20 21  1  0  0  0  0
 21 16  2  0  0  0  0
 22 19  1  0  0  0  0
 23 22  1  0  0  0  0
 24 20  1  0  0  0  0
 25 24  1  0  0  0  0
M  END
>  <MODEL>
2

>  <REMARK>
 VINA RESULT:    -7.193      4.838      8.384
 INTER + INTRA:         -10.398
 INTER:                  -9.836
 INTRA:                  -0.561
 UNBOUND:                -0.471
  Name = CHEMBL4456120
  9 active torsions:
  status: ('A' for Active; 'I' for Inactive)
    1  A    between atoms: C_1  and  O_2
    2  A    between atoms: O_2  and  C_3
    3  A    between atoms: C_6  and  C_7
    4  A    between atoms: C_8  and  C_9
    5  A    between atoms: N_11  and  C_12
    6  A    between atoms: C_12  and  C_13
    7  A    between atoms: C_16  and  O_17
    8  A    between atoms: C_18  and  O_19
    9  A    between atoms: O_19  and  C_20
                            x       y       z     vdW  Elec       q    Type
                         _______ _______ _______ _____ _____    ______ ____

>  <TORSDO>
F 7

>  <SCORE>
-7.193

>  <RMSD_LB>
4.838

>  <RMSD_UB>
8.384

$$$$
CHEMBL4456120
 OpenBabel10162523393D

 25 26  0  0  0  0  0  0  0  0999 V2000
  142.3260  138.2920  151.6630 C   0  0  0  0  0  0  0  0  0  0  0  0
  142.4770  137.7430  150.5790 O   0  0  0  0  0  0  0  0  0  0  0  0
  143.2050  139.1970  152.2050 N   0  0  0  0  0  0  0  0  0  0  0  0
  143.0030  139.5890  153.0860 H   0  0  0  0  0  0  0  0  0  0  0  0
  141.1960  138.3490  153.8450 C   0  0  0  0  0  3  0  0  0  0  0  0
  141.1520  138.0340  152.5370 C   0  0  0  0  0  3  0  0  0  0  0  0
  137.9240  137.8090  156.5800 C   0  0  0  0  0  0  0  0  0  0  0  0
  139.2280  137.5670  157.0040 C   0  0  0  0  0  3  0  0  0  0  0  0
  140.3020  137.7320  156.1180 C   0  0  0  0  0  3  0  0  0  0  0  0
  140.0900  138.1320  154.7920 C   0  0  0  0  0  0  0  0  0  0  0  0
  138.7770  138.3910  154.3790 C   0  0  0  0  0  3  0  0  0  0  0  0
  137.7050  138.2240  155.2660 C   0  0  0  0  0  3  0  0  0  0  0  0
  136.5800  136.4210  157.9640 C   0  0  0  0  0  1  0  0  0  0  0  0
  136.7940  137.6810  157.3420 O   0  0  0  0  0  0  0  0  0  0  0  0
  144.4180  139.5910  151.5240 C   0  0  0  0  0  2  0  0  0  0  0  0
  145.4190  140.2220  152.4570 C   0  0  0  0  0  0  0  0  0  0  0  0
  145.7120  141.5870  152.3510 C   0  0  0  0  0  3  0  0  0  0  0  0
  146.6570  142.1790  153.1900 C   0  0  0  0  0  3  0  0  0  0  0  0
  147.3070  141.4170  154.1630 C   0  0  0  0  0  0  0  0  0  0  0  0
  147.0030  140.0600  154.3150 C   0  0  0  0  0  0  0  0  0  0  0  0
  146.0710  139.4700  153.4470 C   0  0  0  0  0  3  0  0  0  0  0  0
  148.2580  142.0220  154.9370 O   0  0  0  0  0  0  0  0  0  0  0  0
  148.9240  142.5450  154.5380 H   0  0  0  0  0  0  0  0  0  0  0  0
  147.5580  139.1860  155.2130 O   0  0  0  0  0  0  0  0  0  0  0  0
  147.3610  137.8020  154.9460 C   0  0  0  0  0  1  0  0  0  0  0  0
  1  3  1  0  0  0  0
  1  6  1  0  0  0  0
  2  1  2  0  0  0  0
  3  4  1  0  0  0  0
  5 10  1  0  0  0  0
  6  5  2  0  0  0  0
  7  8  1  0  0  0  0
  7 14  1  0  0  0  0
  9  8  2  0  0  0  0
 10  9  1  0  0  0  0
 11 10  2  0  0  0  0
 11 12  1  0  0  0  0
 12  7  2  0  0  0  0
 14 13  1  0  0  0  0
 15  3  1  0  0  0  0
 15 16  1  0  0  0  0
 16 21  1  0  0  0  0
 17 16  2  0  0  0  0
 17 18  1  0  0  0  0
 18 19  2  0  0  0  0
 19 20  1  0  0  0  0
 19 22  1  0  0  0  0
 20 24  1  0  0  0  0
 21 20  2  0  0  0  0
 23 22  1  0  0  0  0
 25 24  1  0  0  0  0
M  END
>  <MODEL>
3

>  <REMARK>
 VINA RESULT:    -7.145      3.553      9.995
 INTER + INTRA:         -10.331
 INTER:                  -9.761
 INTRA:                  -0.570
 UNBOUND:                -0.471
  Name = CHEMBL4456120
  9 active torsions:
  status: ('A' for Active; 'I' for Inactive)
    1  A    between atoms: C_1  and  O_2
    2  A    between atoms: O_2  and  C_3
    3  A    between atoms: C_6  and  C_7
    4  A    between atoms: C_8  and  C_9
    5  A    between atoms: N_11  and  C_12
    6  A    between atoms: C_12  and  C_13
    7  A    between atoms: C_16  and  O_17
    8  A    between atoms: C_18  and  O_19
    9  A    between atoms: O_19  and  C_20
                            x       y       z     vdW  Elec       q    Type
                         _______ _______ _______ _____ _____    ______ ____

>  <TORSDO>
F 7

>  <SCORE>
-7.145

>  <RMSD_LB>
3.553

>  <RMSD_UB>
9.995

$$$$
CHEMBL4456120
 OpenBabel10162523393D

 25 26  0  0  0  0  0  0  0  0999 V2000
  138.9570  138.2790  154.1050 C   0  0  0  0  0  0  0  0  0  0  0  0
  139.3020  139.3250  154.6420 O   0  0  0  0  0  0  0  0  0  0  0  0
  138.0220  137.4130  154.6170 N   0  0  0  0  0  0  0  0  0  0  0  0
  137.8080  136.5930  154.1170 H   0  0  0  0  0  0  0  0  0  0  0  0
  140.8590  137.7020  152.6590 C   0  0  0  0  0  3  0  0  0  0  0  0
  139.5270  137.8140  152.8140 C   0  0  0  0  0  3  0  0  0  0  0  0
  142.8640  136.4660  149.0630 C   0  0  0  0  0  0  0  0  0  0  0  0
  141.4850  136.6500  149.0580 C   0  0  0  0  0  3  0  0  0  0  0  0
  140.8190  137.0450  150.2270 C   0  0  0  0  0  3  0  0  0  0  0  0
  141.5200  137.2540  151.4220 C   0  0  0  0  0  0  0  0  0  0  0  0
  142.9100  137.0840  151.4140 C   0  0  0  0  0  3  0  0  0  0  0  0
  143.5730  136.6880  150.2440 C   0  0  0  0  0  3  0  0  0  0  0  0
  144.1980  134.7790  148.0510 C   0  0  0  0  0  1  0  0  0  0  0  0
  143.6280  136.0800  147.9950 O   0  0  0  0  0  0  0  0  0  0  0  0
  137.3440  137.6690  155.8680 C   0  0  0  0  0  2  0  0  0  0  0  0
  136.3100  136.6190  156.1830 C   0  0  0  0  0  0  0  0  0  0  0  0
  136.2290  136.0800  157.4720 C   0  0  0  0  0  3  0  0  0  0  0  0
  135.2950  135.0870  157.7710 C   0  0  0  0  0  3  0  0  0  0  0  0
  134.4120  134.6350  156.7880 C   0  0  0  0  0  0  0  0  0  0  0  0
  134.4460  135.1860  155.5030 C   0  0  0  0  0  0  0  0  0  0  0  0
  135.4090  136.1640  155.2070 C   0  0  0  0  0  3  0  0  0  0  0  0
  133.5400  133.6310  157.1070 O   0  0  0  0  0  0  0  0  0  0  0  0
  133.0010  133.7030  157.8700 H   0  0  0  0  0  0  0  0  0  0  0  0
  133.6560  134.8430  154.4380 O   0  0  0  0  0  0  0  0  0  0  0  0
  134.3090  134.1870  153.3560 C   0  0  0  0  0  1  0  0  0  0  0  0
  1  3  1  0  0  0  0
  1  2  2  0  0  0  0
  3 15  1  0  0  0  0
  4  3  1  0  0  0  0
  5  6  2  0  0  0  0
  6  1  1  0  0  0  0
  7 12  1  0  0  0  0
  8  7  2  0  0  0  0
  8  9  1  0  0  0  0
  9 10  2  0  0  0  0
 10  5  1  0  0  0  0
 11 10  1  0  0  0  0
 12 11  2  0  0  0  0
 14 13  1  0  0  0  0
 14  7  1  0  0  0  0
 15 16  1  0  0  0  0
 16 17  1  0  0  0  0
 17 18  2  0  0  0  0
 19 22  1  0  0  0  0
 19 18  1  0  0  0  0
 20 19  2  0  0  0  0
 21 20  1  0  0  0  0
 21 16  2  0  0  0  0
 22 23  1  0  0  0  0
 24 20  1  0  0  0  0
 25 24  1  0  0  0  0
M  END
>  <MODEL>
4

>  <REMARK>
 VINA RESULT:    -7.124      1.505      2.498
 INTER + INTRA:         -10.301
 INTER:                  -9.838
 INTRA:                  -0.464
 UNBOUND:                -0.471
  Name = CHEMBL4456120
  9 active torsions:
  status: ('A' for Active; 'I' for Inactive)
    1  A    between atoms: C_1  and  O_2
    2  A    between atoms: O_2  and  C_3
    3  A    between atoms: C_6  and  C_7
    4  A    between atoms: C_8  and  C_9
    5  A    between atoms: N_11  and  C_12
    6  A    between atoms: C_12  and  C_13
    7  A    between atoms: C_16  and  O_17
    8  A    between atoms: C_18  and  O_19
    9  A    between atoms: O_19  and  C_20
                            x       y       z     vdW  Elec       q    Type
                         _______ _______ _______ _____ _____    ______ ____

>  <TORSDO>
F 7

>  <SCORE>
-7.124

>  <RMSD_LB>
1.505

>  <RMSD_UB>
2.498

$$$$
CHEMBL4456120
 OpenBabel10162523393D

 25 26  0  0  0  0  0  0  0  0999 V2000
  138.6510  138.1990  154.8500 C   0  0  0  0  0  0  0  0  0  0  0  0
  137.9660  139.2130  154.8210 O   0  0  0  0  0  0  0  0  0  0  0  0
  138.6740  137.3040  155.8920 N   0  0  0  0  0  0  0  0  0  0  0  0
  139.2580  136.5140  155.8300 H   0  0  0  0  0  0  0  0  0  0  0  0
  140.8880  137.9970  153.8520 C   0  0  0  0  0  3  0  0  0  0  0  0
  139.5600  137.8120  153.7400 C   0  0  0  0  0  3  0  0  0  0  0  0
  143.8170  137.0630  150.8470 C   0  0  0  0  0  0  0  0  0  0  0  0
  142.4690  137.1200  150.5050 C   0  0  0  0  0  3  0  0  0  0  0  0
  141.5040  137.4150  151.4790 C   0  0  0  0  0  3  0  0  0  0  0  0
  141.8700  137.6500  152.8110 C   0  0  0  0  0  0  0  0  0  0  0  0
  143.2300  137.6090  153.1420 C   0  0  0  0  0  3  0  0  0  0  0  0
  144.1920  137.3120  152.1670 C   0  0  0  0  0  3  0  0  0  0  0  0
  144.7190  135.6170  149.1900 C   0  0  0  0  0  1  0  0  0  0  0  0
  144.8510  136.7820  149.9950 O   0  0  0  0  0  0  0  0  0  0  0  0
  137.8670  137.4880  157.0780 C   0  0  0  0  0  2  0  0  0  0  0  0
  136.7250  136.5070  157.1510 C   0  0  0  0  0  0  0  0  0  0  0  0
  136.0900  136.0850  155.9770 C   0  0  0  0  0  3  0  0  0  0  0  0
  135.0140  135.1990  156.0310 C   0  0  0  0  0  3  0  0  0  0  0  0
  134.5710  134.7050  157.2600 C   0  0  0  0  0  0  0  0  0  0  0  0
  135.2150  135.0810  158.4440 C   0  0  0  0  0  0  0  0  0  0  0  0
  136.2790  135.9950  158.3790 C   0  0  0  0  0  3  0  0  0  0  0  0
  133.4870  133.8720  157.2770 O   0  0  0  0  0  0  0  0  0  0  0  0
  132.6220  134.2290  157.2250 H   0  0  0  0  0  0  0  0  0  0  0  0
  134.8940  134.6910  159.7180 O   0  0  0  0  0  0  0  0  0  0  0  0
  133.8850  135.4520  160.3730 C   0  0  0  0  0  1  0  0  0  0  0  0
  1  3  1  0  0  0  0
  2  1  2  0  0  0  0
  3 15  1  0  0  0  0
  4  3  1  0  0  0  0
  6  5  2  0  0  0  0
  6  1  1  0  0  0  0
  7 12  1  0  0  0  0
  8  7  2  0  0  0  0
  8  9  1  0  0  0  0
  9 10  2  0  0  0  0
 10 11  1  0  0  0  0
 10  5  1  0  0  0  0
 12 11  2  0  0  0  0
 13 14  1  0  0  0  0
 14  7  1  0  0  0  0
 15 16  1  0  0  0  0
 16 21  1  0  0  0  0
 17 18  1  0  0  0  0
 17 16  2  0  0  0  0
 18 19  2  0  0  0  0
 19 22  1  0  0  0  0
 19 20  1  0  0  0  0
 20 24  1  0  0  0  0
 21 20  2  0  0  0  0
 23 22  1  0  0  0  0
 24 25  1  0  0  0  0
M  END
>  <MODEL>
5

>  <REMARK>
 VINA RESULT:    -7.061      1.451      2.008
 INTER + INTRA:         -10.215
 INTER:                  -9.738
 INTRA:                  -0.477
 UNBOUND:                -0.471
  Name = CHEMBL4456120
  9 active torsions:
  status: ('A' for Active; 'I' for Inactive)
    1  A    between atoms: C_1  and  O_2
    2  A    between atoms: O_2  and  C_3
    3  A    between atoms: C_6  and  C_7
    4  A    between atoms: C_8  and  C_9
    5  A    between atoms: N_11  and  C_12
    6  A    between atoms: C_12  and  C_13
    7  A    between atoms: C_16  and  O_17
    8  A    between atoms: C_18  and  O_19
    9  A    between atoms: O_19  and  C_20
                            x       y       z     vdW  Elec       q    Type
                         _______ _______ _______ _____ _____    ______ ____

>  <TORSDO>
F 7

>  <SCORE>
-7.061

>  <RMSD_LB>
1.451

>  <RMSD_UB>
2.008

$$$$
CHEMBL4456120
 OpenBabel10162523393D

 25 26  0  0  0  0  0  0  0  0999 V2000
  143.4080  137.7590  152.1340 C   0  0  0  0  0  0  0  0  0  0  0  0
  143.6200  138.1160  150.9820 O   0  0  0  0  0  0  0  0  0  0  0  0
  144.3680  137.2720  152.9860 N   0  0  0  0  0  0  0  0  0  0  0  0
  144.1070  137.0060  153.8980 H   0  0  0  0  0  0  0  0  0  0  0  0
  141.9270  137.9260  154.0880 C   0  0  0  0  0  3  0  0  0  0  0  0
  142.0580  137.8070  152.7540 C   0  0  0  0  0  3  0  0  0  0  0  0
  138.1480  138.1840  156.1220 C   0  0  0  0  0  0  0  0  0  0  0  0
  139.2600  137.6790  156.7890 C   0  0  0  0  0  3  0  0  0  0  0  0
  140.4960  137.5830  156.1330 C   0  0  0  0  0  3  0  0  0  0  0  0
  140.6380  137.9800  154.7970 C   0  0  0  0  0  0  0  0  0  0  0  0
  139.5180  138.5040  154.1390 C   0  0  0  0  0  3  0  0  0  0  0  0
  138.2840  138.5990  154.7960 C   0  0  0  0  0  3  0  0  0  0  0  0
  136.5900  137.5580  157.8030 C   0  0  0  0  0  1  0  0  0  0  0  0
  136.8910  138.3260  156.6450 O   0  0  0  0  0  0  0  0  0  0  0  0
  145.7510  137.1370  152.5860 C   0  0  0  0  0  2  0  0  0  0  0  0
  146.6300  138.2000  153.1950 C   0  0  0  0  0  0  0  0  0  0  0  0
  147.4070  137.9050  154.3210 C   0  0  0  0  0  3  0  0  0  0  0  0
  148.2040  138.8870  154.9120 C   0  0  0  0  0  3  0  0  0  0  0  0
  148.2500  140.1730  154.3700 C   0  0  0  0  0  0  0  0  0  0  0  0
  147.5130  140.4810  153.2210 C   0  0  0  0  0  0  0  0  0  0  0  0
  146.6940  139.4930  152.6530 C   0  0  0  0  0  3  0  0  0  0  0  0
  149.0080  141.1200  155.0010 O   0  0  0  0  0  0  0  0  0  0  0  0
  148.9860  141.1920  155.9350 H   0  0  0  0  0  0  0  0  0  0  0  0
  147.4500  141.6920  152.5820 O   0  0  0  0  0  0  0  0  0  0  0  0
  146.1570  142.2730  152.4630 C   0  0  0  0  0  1  0  0  0  0  0  0
  1  6  1  0  0  0  0
  1  3  1  0  0  0  0
  2  1  2  0  0  0  0
  3  4  1  0  0  0  0
  5 10  1  0  0  0  0
  6  5  2  0  0  0  0
  7 14  1  0  0  0  0
  7  8  1  0  0  0  0
  9  8  2  0  0  0  0
 10  9  1  0  0  0  0
 11 12  1  0  0  0  0
 11 10  2  0  0  0  0
 12  7  2  0  0  0  0
 14 13  1  0  0  0  0
 15  3  1  0  0  0  0
 15 16  1  0  0  0  0
 16 17  1  0  0  0  0
 17 18  2  0  0  0  0
 19 18  1  0  0  0  0
 19 22  1  0  0  0  0
 20 19  2  0  0  0  0
 21 16  2  0  0  0  0
 21 20  1  0  0  0  0
 22 23  1  0  0  0  0
 24 20  1  0  0  0  0
 25 24  1  0  0  0  0
M  END
>  <MODEL>
6

>  <REMARK>
 VINA RESULT:    -7.006      3.361     10.298
 INTER + INTRA:         -10.139
 INTER:                  -9.486
 INTRA:                  -0.653
 UNBOUND:                -0.471
  Name = CHEMBL4456120
  9 active torsions:
  status: ('A' for Active; 'I' for Inactive)
    1  A    between atoms: C_1  and  O_2
    2  A    between atoms: O_2  and  C_3
    3  A    between atoms: C_6  and  C_7
    4  A    between atoms: C_8  and  C_9
    5  A    between atoms: N_11  and  C_12
    6  A    between atoms: C_12  and  C_13
    7  A    between atoms: C_16  and  O_17
    8  A    between atoms: C_18  and  O_19
    9  A    between atoms: O_19  and  C_20
                            x       y       z     vdW  Elec       q    Type
                         _______ _______ _______ _____ _____    ______ ____

>  <TORSDO>
F 7

>  <SCORE>
-7.006

>  <RMSD_LB>
3.361

>  <RMSD_UB>
10.298

$$$$
CHEMBL4456120
 OpenBabel10162523393D

 25 26  0  0  0  0  0  0  0  0999 V2000
  145.0070  140.4540  149.0640 C   0  0  0  0  0  0  0  0  0  0  0  0
  145.8690  139.9210  148.3760 O   0  0  0  0  0  0  0  0  0  0  0  0
  145.2160  141.5540  149.8590 N   0  0  0  0  0  0  0  0  0  0  0  0
  144.4640  141.9160  150.3810 H   0  0  0  0  0  0  0  0  0  0  0  0
  142.9490  139.9210  150.2980 C   0  0  0  0  0  3  0  0  0  0  0  0
  143.6070  139.9580  149.1250 C   0  0  0  0  0  3  0  0  0  0  0  0
  138.9410  138.4370  150.7600 C   0  0  0  0  0  0  0  0  0  0  0  0
  139.1740  139.5740  149.9920 C   0  0  0  0  0  3  0  0  0  0  0  0
  140.4760  140.0720  149.8420 C   0  0  0  0  0  3  0  0  0  0  0  0
  141.5650  139.4470  150.4630 C   0  0  0  0  0  0  0  0  0  0  0  0
  141.3240  138.2930  151.2180 C   0  0  0  0  0  3  0  0  0  0  0  0
  140.0220  137.7980  151.3690 C   0  0  0  0  0  3  0  0  0  0  0  0
  137.5290  136.5480  150.4660 C   0  0  0  0  0  1  0  0  0  0  0  0
  137.7230  137.8560  150.9880 O   0  0  0  0  0  0  0  0  0  0  0  0
  146.5080  142.1970  149.9530 C   0  0  0  0  0  2  0  0  0  0  0  0
  147.1660  141.9680  151.2900 C   0  0  0  0  0  0  0  0  0  0  0  0
  148.5200  142.2730  151.4650 C   0  0  0  0  0  3  0  0  0  0  0  0
  149.1490  142.0400  152.6890 C   0  0  0  0  0  3  0  0  0  0  0  0
  148.4240  141.5180  153.7630 C   0  0  0  0  0  0  0  0  0  0  0  0
  147.0590  141.2430  153.6240 C   0  0  0  0  0  0  0  0  0  0  0  0
  146.4450  141.4550  152.3800 C   0  0  0  0  0  3  0  0  0  0  0  0
  149.0830  141.2630  154.9330 O   0  0  0  0  0  0  0  0  0  0  0  0
  148.7440  140.6290  155.5330 H   0  0  0  0  0  0  0  0  0  0  0  0
  146.2220  140.7250  154.5770 O   0  0  0  0  0  0  0  0  0  0  0  0
  146.2210  139.3070  154.7100 C   0  0  0  0  0  1  0  0  0  0  0  0
  1  6  1  0  0  0  0
  1  3  1  0  0  0  0
  2  1  2  0  0  0  0
  3 15  1  0  0  0  0
  3  4  1  0  0  0  0
  5 10  1  0  0  0  0
  6  5  2  0  0  0  0
  7 14  1  0  0  0  0
  7 12  1  0  0  0  0
  8  7  2  0  0  0  0
  9  8  1  0  0  0  0
  9 10  2  0  0  0  0
 10 11  1  0  0  0  0
 11 12  2  0  0  0  0
 13 14  1  0  0  0  0
 15 16  1  0  0  0  0
 16 17  2  0  0  0  0
 16 21  1  0  0  0  0
 17 18  1  0  0  0  0
 18 19  2  0  0  0  0
 19 22  1  0  0  0  0
 20 19  1  0  0  0  0
 20 24  1  0  0  0  0
 21 20  2  0  0  0  0
 22 23  1  0  0  0  0
 24 25  1  0  0  0  0
M  END
>  <MODEL>
7

>  <REMARK>
 VINA RESULT:    -6.968      4.897     10.533
 INTER + INTRA:         -10.086
 INTER:                  -9.393
 INTRA:                  -0.693
 UNBOUND:                -0.471
  Name = CHEMBL4456120
  9 active torsions:
  status: ('A' for Active; 'I' for Inactive)
    1  A    between atoms: C_1  and  O_2
    2  A    between atoms: O_2  and  C_3
    3  A    between atoms: C_6  and  C_7
    4  A    between atoms: C_8  and  C_9
    5  A    between atoms: N_11  and  C_12
    6  A    between atoms: C_12  and  C_13
    7  A    between atoms: C_16  and  O_17
    8  A    between atoms: C_18  and  O_19
    9  A    between atoms: O_19  and  C_20
                            x       y       z     vdW  Elec       q    Type
                         _______ _______ _______ _____ _____    ______ ____

>  <TORSDO>
F 7

>  <SCORE>
-6.968

>  <RMSD_LB>
4.897

>  <RMSD_UB>
10.533

$$$$
CHEMBL4456120
 OpenBabel10162523393D

 25 26  0  0  0  0  0  0  0  0999 V2000
  139.3250  136.7620  149.9390 C   0  0  0  0  0  0  0  0  0  0  0  0
  139.3360  136.1490  148.8790 O   0  0  0  0  0  0  0  0  0  0  0  0
  138.1860  137.1320  150.6110 N   0  0  0  0  0  0  0  0  0  0  0  0
  138.2720  137.6260  151.4590 H   0  0  0  0  0  0  0  0  0  0  0  0
  140.5640  137.4120  151.9590 C   0  0  0  0  0  3  0  0  0  0  0  0
  140.5680  137.1890  150.6320 C   0  0  0  0  0  3  0  0  0  0  0  0
  143.9570  138.7570  154.2320 C   0  0  0  0  0  0  0  0  0  0  0  0
  144.1480  137.9440  153.1190 C   0  0  0  0  0  3  0  0  0  0  0  0
  143.0480  137.4920  152.3750 C   0  0  0  0  0  3  0  0  0  0  0  0
  141.7390  137.8380  152.7370 C   0  0  0  0  0  0  0  0  0  0  0  0
  141.5570  138.6720  153.8470 C   0  0  0  0  0  3  0  0  0  0  0  0
  142.6580  139.1210  154.5900 C   0  0  0  0  0  3  0  0  0  0  0  0
  146.2220  138.6480  154.9430 C   0  0  0  0  0  1  0  0  0  0  0  0
  144.9410  139.2580  155.0400 O   0  0  0  0  0  0  0  0  0  0  0  0
  136.8650  136.8210  150.1120 C   0  0  0  0  0  2  0  0  0  0  0  0
  136.0930  135.9330  151.0540 C   0  0  0  0  0  0  0  0  0  0  0  0
  136.2700  136.0580  152.4370 C   0  0  0  0  0  3  0  0  0  0  0  0
  135.5820  135.2250  153.3200 C   0  0  0  0  0  3  0  0  0  0  0  0
  134.6890  134.2690  152.8320 C   0  0  0  0  0  0  0  0  0  0  0  0
  134.4650  134.1520  151.4560 C   0  0  0  0  0  0  0  0  0  0  0  0
  135.1840  134.9770  150.5760 C   0  0  0  0  0  3  0  0  0  0  0  0
  134.0660  133.4420  153.7250 O   0  0  0  0  0  0  0  0  0  0  0  0
  134.5600  132.7940  154.1870 H   0  0  0  0  0  0  0  0  0  0  0  0
  133.6310  133.2630  150.8290 O   0  0  0  0  0  0  0  0  0  0  0  0
  132.4840  133.8170  150.1940 C   0  0  0  0  0  1  0  0  0  0  0  0
  1  3  1  0  0  0  0
  1  6  1  0  0  0  0
  2  1  2  0  0  0  0
  3  4  1  0  0  0  0
  5 10  1  0  0  0  0
  6  5  2  0  0  0  0
  7 12  1  0  0  0  0
  7 14  1  0  0  0  0
  8  7  2  0  0  0  0
  9 10  2  0  0  0  0
  9  8  1  0  0  0  0
 10 11  1  0  0  0  0
 11 12  2  0  0  0  0
 13 14  1  0  0  0  0
 15  3  1  0  0  0  0
 15 16  1  0  0  0  0
 16 17  1  0  0  0  0
 17 18  2  0  0  0  0
 19 18  1  0  0  0  0
 19 22  1  0  0  0  0
 20 19  2  0  0  0  0
 21 16  2  0  0  0  0
 21 20  1  0  0  0  0
 22 23  1  0  0  0  0
 24 20  1  0  0  0  0
 25 24  1  0  0  0  0
M  END
>  <MODEL>
8

>  <REMARK>
 VINA RESULT:    -6.927      2.935      4.128
 INTER + INTRA:         -10.029
 INTER:                  -9.404
 INTRA:                  -0.626
 UNBOUND:                -0.471
  Name = CHEMBL4456120
  9 active torsions:
  status: ('A' for Active; 'I' for Inactive)
    1  A    between atoms: C_1  and  O_2
    2  A    between atoms: O_2  and  C_3
    3  A    between atoms: C_6  and  C_7
    4  A    between atoms: C_8  and  C_9
    5  A    between atoms: N_11  and  C_12
    6  A    between atoms: C_12  and  C_13
    7  A    between atoms: C_16  and  O_17
    8  A    between atoms: C_18  and  O_19
    9  A    between atoms: O_19  and  C_20
                            x       y       z     vdW  Elec       q    Type
                         _______ _______ _______ _____ _____    ______ ____

>  <TORSDO>
F 7

>  <SCORE>
-6.927

>  <RMSD_LB>
2.935

>  <RMSD_UB>
4.128

$$$$
CHEMBL4456120
 OpenBabel10162523393D

 25 26  0  0  0  0  0  0  0  0999 V2000
  139.8630  137.4080  151.3120 C   0  0  0  0  0  0  0  0  0  0  0  0
  140.0760  137.1290  150.1390 O   0  0  0  0  0  0  0  0  0  0  0  0
  138.6200  137.4210  151.8950 N   0  0  0  0  0  0  0  0  0  0  0  0
  138.5420  137.6600  152.8470 H   0  0  0  0  0  0  0  0  0  0  0  0
  142.2370  137.6130  151.9130 C   0  0  0  0  0  3  0  0  0  0  0  0
  140.9470  137.7780  152.2590 C   0  0  0  0  0  3  0  0  0  0  0  0
  145.5510  138.5050  154.5030 C   0  0  0  0  0  0  0  0  0  0  0  0
  144.7290  139.5340  154.0510 C   0  0  0  0  0  3  0  0  0  0  0  0
  143.6510  139.2550  153.2000 C   0  0  0  0  0  3  0  0  0  0  0  0
  143.3810  137.9470  152.7780 C   0  0  0  0  0  0  0  0  0  0  0  0
  144.2010  136.9150  153.2530 C   0  0  0  0  0  3  0  0  0  0  0  0
  145.2790  137.1960  154.1030 C   0  0  0  0  0  3  0  0  0  0  0  0
  147.6960  139.4630  154.8620 C   0  0  0  0  0  1  0  0  0  0  0  0
  146.6320  138.6440  155.3300 O   0  0  0  0  0  0  0  0  0  0  0  0
  137.4210  137.0960  151.1540 C   0  0  0  0  0  2  0  0  0  0  0  0
  136.5380  136.1230  151.8920 C   0  0  0  0  0  0  0  0  0  0  0  0
  135.9750  135.0360  151.2140 C   0  0  0  0  0  3  0  0  0  0  0  0
  135.1330  134.1420  151.8770 C   0  0  0  0  0  3  0  0  0  0  0  0
  134.8610  134.3120  153.2370 C   0  0  0  0  0  0  0  0  0  0  0  0
  135.4430  135.3680  153.9460 C   0  0  0  0  0  0  0  0  0  0  0  0
  136.2660  136.2760  153.2600 C   0  0  0  0  0  3  0  0  0  0  0  0
  133.9970  133.4420  153.8430 O   0  0  0  0  0  0  0  0  0  0  0  0
  134.2660  132.9720  154.6080 H   0  0  0  0  0  0  0  0  0  0  0  0
  135.2670  135.6680  155.2710 O   0  0  0  0  0  0  0  0  0  0  0  0
  136.4500  135.7670  156.0560 C   0  0  0  0  0  1  0  0  0  0  0  0
  1  3  1  0  0  0  0
  1  6  1  0  0  0  0
  2  1  2  0  0  0  0
  3  4  1  0  0  0  0
  5  6  2  0  0  0  0
  5 10  1  0  0  0  0
  7 14  1  0  0  0  0
  8  7  2  0  0  0  0
  9  8  1  0  0  0  0
 10  9  2  0  0  0  0
 10 11  1  0  0  0  0
 11 12  2  0  0  0  0
 12  7  1  0  0  0  0
 13 14  1  0  0  0  0
 15 16  1  0  0  0  0
 15  3  1  0  0  0  0
 16 21  1  0  0  0  0
 17 18  1  0  0  0  0
 17 16  2  0  0  0  0
 18 19  2  0  0  0  0
 19 22  1  0  0  0  0
 19 20  1  0  0  0  0
 20 24  1  0  0  0  0
 21 20  2  0  0  0  0
 22 23  1  0  0  0  0
 24 25  1  0  0  0  0
M  END
>  <MODEL>
9

>  <REMARK>
 VINA RESULT:    -6.865      2.454      3.198
 INTER + INTRA:          -9.945
 INTER:                  -9.474
 INTRA:                  -0.471
 UNBOUND:                -0.471
  Name = CHEMBL4456120
  9 active torsions:
  status: ('A' for Active; 'I' for Inactive)
    1  A    between atoms: C_1  and  O_2
    2  A    between atoms: O_2  and  C_3
    3  A    between atoms: C_6  and  C_7
    4  A    between atoms: C_8  and  C_9
    5  A    between atoms: N_11  and  C_12
    6  A    between atoms: C_12  and  C_13
    7  A    between atoms: C_16  and  O_17
    8  A    between atoms: C_18  and  O_19
    9  A    between atoms: O_19  and  C_20
                            x       y       z     vdW  Elec       q    Type
                         _______ _______ _______ _____ _____    ______ ____

>  <TORSDO>
F 7

>  <SCORE>
-6.865

>  <RMSD_LB>
2.454

>  <RMSD_UB>
3.198

$$$$
