CHEMBL80157
 OpenBabel10172500063D

 38 38  0  0  0  0  0  0  0  0999 V2000
  148.6790  138.6160  153.6000 C   0  0  0  0  0  2  0  0  0  0  0  0
  147.5580  138.1120  154.5010 C   0  0  0  0  0  2  0  0  0  0  0  0
  146.1910  138.3260  153.8500 C   0  0  0  0  0  2  0  0  0  0  0  0
  145.5470  136.9860  153.5180 C   0  0  0  0  0  2  0  0  0  0  0  0
  145.8740  136.5080  152.1030 C   0  0  0  0  0  2  0  0  0  0  0  0
  144.6210  136.4560  151.2570 C   0  0  0  0  0  0  0  0  0  0  0  0
  144.5780  135.9120  150.1480 O   0  0  0  0  0  0  0  0  0  0  0  0
  143.5230  137.0510  151.8270 N   0  0  0  0  0  0  0  0  0  0  0  0
  143.5970  137.4630  152.7180 H   0  0  0  0  0  0  0  0  0  0  0  0
  142.2630  137.0770  151.1270 C   0  0  0  0  0  2  0  0  0  0  0  0
  141.1540  137.6480  151.9700 C   0  0  0  0  0  0  0  0  0  0  0  0
  139.8680  137.8090  151.4410 C   0  0  0  0  0  3  0  0  0  0  0  0
  138.8280  138.2780  152.2440 C   0  0  0  0  0  3  0  0  0  0  0  0
  139.0620  138.5990  153.5840 C   0  0  0  0  0  0  0  0  0  0  0  0
  140.3490  138.4870  154.1250 C   0  0  0  0  0  0  0  0  0  0  0  0
  141.3860  138.0200  153.3030 C   0  0  0  0  0  3  0  0  0  0  0  0
  140.7580  138.7680  155.4020 O   0  0  0  0  0  0  0  0  0  0  0  0
  140.5720  137.7620  156.3900 C   0  0  0  0  0  1  0  0  0  0  0  0
  138.0000  139.0150  154.3390 O   0  0  0  0  0  0  0  0  0  0  0  0
  137.1500  138.6490  154.1920 H   0  0  0  0  0  0  0  0  0  0  0  0
  148.1430  139.5840  152.5480 C   0  0  0  0  0  2  0  0  0  0  0  0
  148.5760  141.0130  152.8620 C   0  0  0  0  0  2  0  0  0  0  0  0
  147.8330  142.0140  151.9830 C   0  0  0  0  0  2  0  0  0  0  0  0
  146.4390  142.3020  152.5350 C   0  0  0  0  0  2  0  0  0  0  0  0
  145.4500  142.5280  151.3980 C   0  0  0  0  0  2  0  0  0  0  0  0
  144.9230  140.3220  150.4830 C   0  0  0  0  0  0  0  0  0  0  0  0
  144.1820  140.0630  151.4310 O   0  0  0  0  0  0  0  0  0  0  0  0
  145.5820  141.5300  150.3630 N   0  0  0  0  0  0  0  0  0  0  0  0
  146.1420  141.7090  149.5730 H   0  0  0  0  0  0  0  0  0  0  0  0
  145.1530  139.3490  149.3260 C   0  0  0  0  0  2  0  0  0  0  0  0
  146.4560  138.7840  149.4180 O   0  0  0  0  0  0  0  0  0  0  0  0
  146.7490  137.9130  148.3260 C   0  0  0  0  0  2  0  0  0  0  0  0
  147.4720  138.7170  147.2500 C   0  0  0  0  0  2  0  0  0  0  0  0
  146.7400  138.6460  146.0290 O   0  0  0  0  0  0  0  0  0  0  0  0
  147.6060  138.7830  144.9020 C   0  0  0  0  0  2  0  0  0  0  0  0
  148.9990  138.2970  145.2820 C   0  0  0  0  0  2  0  0  0  0  0  0
  151.2790  138.6440  144.8290 C   0  0  0  0  0  1  0  0  0  0  0  0
  149.9750  139.2100  144.7830 O   0  0  0  0  0  0  0  0  0  0  0  0
  1  2  1  0  0  0  0
  3  2  1  0  0  0  0
  4  3  1  0  0  0  0
  5  4  1  0  0  0  0
  6  8  1  0  0  0  0
  6  5  1  0  0  0  0
  7  6  2  0  0  0  0
  8  9  1  0  0  0  0
 10  8  1  0  0  0  0
 10 11  1  0  0  0  0
 11 16  1  0  0  0  0
 12 11  2  0  0  0  0
 12 13  1  0  0  0  0
 13 14  2  0  0  0  0
 14 15  1  0  0  0  0
 14 19  1  0  0  0  0
 15 17  1  0  0  0  0
 16 15  2  0  0  0  0
 17 18  1  0  0  0  0
 20 19  1  0  0  0  0
 21 22  1  0  0  0  0
 21  1  1  0  0  0  0
 23 24  1  0  0  0  0
 23 22  1  0  0  0  0
 25 24  1  0  0  0  0
 26 27  2  0  0  0  0
 28 26  1  0  0  0  0
 28 25  1  0  0  0  0
 29 28  1  0  0  0  0
 30 31  1  0  0  0  0
 30 26  1  0  0  0  0
 32 31  1  0  0  0  0
 33 32  1  0  0  0  0
 34 33  1  0  0  0  0
 35 36  1  0  0  0  0
 35 34  1  0  0  0  0
 38 37  1  0  0  0  0
 38 36  1  0  0  0  0
M  END
>  <MODEL>
1

>  <REMARK>
 VINA RESULT:    -5.966      0.000      0.000
 INTER + INTRA:         -16.168
 INTER:                 -13.276
 INTRA:                  -2.892
 UNBOUND:                -2.355
  Name = CHEMBL80157
  25 active torsions:
  status: ('A' for Active; 'I' for Inactive)
    1  A    between atoms: C_1  and  O_2
    2  A    between atoms: O_2  and  C_3
    3  A    between atoms: C_3  and  C_4
    4  A    between atoms: C_4  and  O_5
    5  A    between atoms: O_5  and  C_6
    6  A    between atoms: C_6  and  C_7
    7  A    between atoms: C_7  and  O_8
    8  A    between atoms: O_8  and  C_9
    9  A    between atoms: C_9  and  C_10
   10  A    between atoms: N_12  and  C_13
   11  A    between atoms: C_13  and  C_14
   12  A    between atoms: C_14  and  C_15
   13  A    between atoms: C_15  and  C_16
   14  A    between atoms: C_16  and  C_17
   15  A    between atoms: C_17  and  C_18
   16  A    between atoms: C_18  and  C_19
   17  A    between atoms: C_19  and  C_20
   18  A    between atoms: C_20  and  C_21
   19  A    between atoms: C_21  and  C_22
   20  A    between atoms: C_22  and  C_23
   21  A    between atoms: N_25  and  C_26
   22  A    between atoms: C_26  and  C_27
   23  A    between atoms: C_30  and  O_31
   24  A    between atoms: C_32  and  O_33
   25  A    between atoms: O_33  and  C_34
                            x       y       z     vdW  Elec       q    Type
                         _______ _______ _______ _____ _____    ______ ____

>  <TORSDO>
F 23

>  <SCORE>
-5.966

>  <RMSD_LB>
0.000

>  <RMSD_UB>
0.000

$$$$
CHEMBL80157
 OpenBabel10172500063D

 38 38  0  0  0  0  0  0  0  0999 V2000
  141.6050  137.9530  151.6780 C   0  0  0  0  0  2  0  0  0  0  0  0
  140.4380  137.5700  152.5810 C   0  0  0  0  0  2  0  0  0  0  0  0
  139.4010  138.6920  152.6440 C   0  0  0  0  0  2  0  0  0  0  0  0
  139.4460  139.3790  154.0040 C   0  0  0  0  0  2  0  0  0  0  0  0
  139.2650  138.4010  155.1650 C   0  0  0  0  0  2  0  0  0  0  0  0
  137.7980  138.1120  155.3930 C   0  0  0  0  0  0  0  0  0  0  0  0
  136.9560  138.9970  155.5730 O   0  0  0  0  0  0  0  0  0  0  0  0
  137.4700  136.7780  155.3680 N   0  0  0  0  0  0  0  0  0  0  0  0
  138.1710  136.1050  155.2100 H   0  0  0  0  0  0  0  0  0  0  0  0
  136.1060  136.3600  155.5750 C   0  0  0  0  0  2  0  0  0  0  0  0
  135.4770  135.8230  154.3180 C   0  0  0  0  0  0  0  0  0  0  0  0
  134.1400  135.4070  154.3110 C   0  0  0  0  0  3  0  0  0  0  0  0
  133.5420  134.9700  153.1290 C   0  0  0  0  0  3  0  0  0  0  0  0
  134.2750  134.9360  151.9390 C   0  0  0  0  0  0  0  0  0  0  0  0
  135.6260  135.3070  151.9280 C   0  0  0  0  0  0  0  0  0  0  0  0
  136.2150  135.7380  153.1270 C   0  0  0  0  0  3  0  0  0  0  0  0
  136.4910  135.3220  150.8660 O   0  0  0  0  0  0  0  0  0  0  0  0
  136.9310  136.5880  150.3920 C   0  0  0  0  0  1  0  0  0  0  0  0
  133.6310  134.5390  150.8000 O   0  0  0  0  0  0  0  0  0  0  0  0
  132.9430  135.0650  150.4450 H   0  0  0  0  0  0  0  0  0  0  0  0
  142.6480  138.7610  152.4460 C   0  0  0  0  0  2  0  0  0  0  0  0
  142.8870  138.1560  153.8270 C   0  0  0  0  0  2  0  0  0  0  0  0
  144.0320  137.1490  153.7920 C   0  0  0  0  0  2  0  0  0  0  0  0
  145.3740  137.8510  153.5930 C   0  0  0  0  0  2  0  0  0  0  0  0
  146.2510  137.0620  152.6280 C   0  0  0  0  0  2  0  0  0  0  0  0
  145.5040  137.2660  150.3080 C   0  0  0  0  0  0  0  0  0  0  0  0
  144.6630  136.3790  150.4610 O   0  0  0  0  0  0  0  0  0  0  0  0
  146.3280  137.6930  151.3310 N   0  0  0  0  0  0  0  0  0  0  0  0
  146.9670  138.4260  151.1760 H   0  0  0  0  0  0  0  0  0  0  0  0
  145.6910  138.0070  148.9840 C   0  0  0  0  0  2  0  0  0  0  0  0
  145.7840  139.4070  149.2190 O   0  0  0  0  0  0  0  0  0  0  0  0
  144.5110  140.0060  149.4540 C   0  0  0  0  0  2  0  0  0  0  0  0
  144.6910  141.1380  150.4600 C   0  0  0  0  0  2  0  0  0  0  0  0
  145.6310  140.7460  151.4570 O   0  0  0  0  0  0  0  0  0  0  0  0
  146.3780  141.8680  151.9290 C   0  0  0  0  0  2  0  0  0  0  0  0
  146.5860  141.7310  153.4310 C   0  0  0  0  0  2  0  0  0  0  0  0
  148.7210  141.8570  154.4060 C   0  0  0  0  0  1  0  0  0  0  0  0
  147.8080  141.0400  153.6830 O   0  0  0  0  0  0  0  0  0  0  0  0
  1 21  1  0  0  0  0
  1  2  1  0  0  0  0
  2  3  1  0  0  0  0
  3  4  1  0  0  0  0
  4  5  1  0  0  0  0
  5  6  1  0  0  0  0
  6  7  2  0  0  0  0
  8  6  1  0  0  0  0
  8 10  1  0  0  0  0
  9  8  1  0  0  0  0
 11 10  1  0  0  0  0
 12 11  1  0  0  0  0
 13 12  2  0  0  0  0
 14 13  1  0  0  0  0
 15 14  2  0  0  0  0
 15 16  1  0  0  0  0
 16 11  2  0  0  0  0
 17 15  1  0  0  0  0
 18 17  1  0  0  0  0
 19 14  1  0  0  0  0
 20 19  1  0  0  0  0
 21 22  1  0  0  0  0
 23 22  1  0  0  0  0
 24 23  1  0  0  0  0
 25 24  1  0  0  0  0
 26 27  2  0  0  0  0
 26 28  1  0  0  0  0
 28 25  1  0  0  0  0
 29 28  1  0  0  0  0
 30 31  1  0  0  0  0
 30 26  1  0  0  0  0
 31 32  1  0  0  0  0
 32 33  1  0  0  0  0
 33 34  1  0  0  0  0
 34 35  1  0  0  0  0
 35 36  1  0  0  0  0
 36 38  1  0  0  0  0
 38 37  1  0  0  0  0
M  END
>  <MODEL>
2

>  <REMARK>
 VINA RESULT:    -5.697      3.299      6.628
 INTER + INTRA:         -15.546
 INTER:                 -12.887
 INTRA:                  -2.659
 UNBOUND:                -2.355
  Name = CHEMBL80157
  25 active torsions:
  status: ('A' for Active; 'I' for Inactive)
    1  A    between atoms: C_1  and  O_2
    2  A    between atoms: O_2  and  C_3
    3  A    between atoms: C_3  and  C_4
    4  A    between atoms: C_4  and  O_5
    5  A    between atoms: O_5  and  C_6
    6  A    between atoms: C_6  and  C_7
    7  A    between atoms: C_7  and  O_8
    8  A    between atoms: O_8  and  C_9
    9  A    between atoms: C_9  and  C_10
   10  A    between atoms: N_12  and  C_13
   11  A    between atoms: C_13  and  C_14
   12  A    between atoms: C_14  and  C_15
   13  A    between atoms: C_15  and  C_16
   14  A    between atoms: C_16  and  C_17
   15  A    between atoms: C_17  and  C_18
   16  A    between atoms: C_18  and  C_19
   17  A    between atoms: C_19  and  C_20
   18  A    between atoms: C_20  and  C_21
   19  A    between atoms: C_21  and  C_22
   20  A    between atoms: C_22  and  C_23
   21  A    between atoms: N_25  and  C_26
   22  A    between atoms: C_26  and  C_27
   23  A    between atoms: C_30  and  O_31
   24  A    between atoms: C_32  and  O_33
   25  A    between atoms: O_33  and  C_34
                            x       y       z     vdW  Elec       q    Type
                         _______ _______ _______ _____ _____    ______ ____

>  <TORSDO>
F 23

>  <SCORE>
-5.697

>  <RMSD_LB>
3.299

>  <RMSD_UB>
6.628

$$$$
CHEMBL80157
 OpenBabel10172500063D

 38 38  0  0  0  0  0  0  0  0999 V2000
  138.6210  137.9070  151.0700 C   0  0  0  0  0  2  0  0  0  0  0  0
  139.7930  137.0340  150.6360 C   0  0  0  0  0  2  0  0  0  0  0  0
  139.9720  137.0700  149.1180 C   0  0  0  0  0  2  0  0  0  0  0  0
  139.9650  135.6560  148.5500 C   0  0  0  0  0  2  0  0  0  0  0  0
  139.8340  135.6320  147.0270 C   0  0  0  0  0  2  0  0  0  0  0  0
  138.4950  135.0600  146.6160 C   0  0  0  0  0  0  0  0  0  0  0  0
  138.1960  134.8200  145.4420 O   0  0  0  0  0  0  0  0  0  0  0  0
  137.6380  134.8120  147.6600 N   0  0  0  0  0  0  0  0  0  0  0  0
  137.9210  135.0080  148.5820 H   0  0  0  0  0  0  0  0  0  0  0  0
  136.3260  134.2700  147.4110 C   0  0  0  0  0  2  0  0  0  0  0  0
  135.2390  135.0930  148.0480 C   0  0  0  0  0  0  0  0  0  0  0  0
  135.0470  136.4290  147.6790 C   0  0  0  0  0  3  0  0  0  0  0  0
  133.9990  137.1700  148.2250 C   0  0  0  0  0  3  0  0  0  0  0  0
  133.1310  136.5860  149.1520 C   0  0  0  0  0  0  0  0  0  0  0  0
  133.3270  135.2630  149.5690 C   0  0  0  0  0  0  0  0  0  0  0  0
  134.3900  134.5340  149.0160 C   0  0  0  0  0  3  0  0  0  0  0  0
  132.5890  134.5420  150.4710 O   0  0  0  0  0  0  0  0  0  0  0  0
  133.2540  133.5140  151.1940 C   0  0  0  0  0  1  0  0  0  0  0  0
  132.0950  137.3420  149.6260 O   0  0  0  0  0  0  0  0  0  0  0  0
  131.2110  137.0820  149.4560 H   0  0  0  0  0  0  0  0  0  0  0  0
  137.3030  137.3630  150.5270 C   0  0  0  0  0  2  0  0  0  0  0  0
  136.9620  136.0280  151.1820 C   0  0  0  0  0  2  0  0  0  0  0  0
  135.7640  136.1680  152.1170 C   0  0  0  0  0  2  0  0  0  0  0  0
  135.9900  135.4010  153.4180 C   0  0  0  0  0  2  0  0  0  0  0  0
  136.0260  136.3580  154.6030 C   0  0  0  0  0  2  0  0  0  0  0  0
  137.7190  137.9550  155.3560 C   0  0  0  0  0  0  0  0  0  0  0  0
  136.8990  138.8740  155.3730 O   0  0  0  0  0  0  0  0  0  0  0  0
  137.3780  136.6630  155.0090 N   0  0  0  0  0  0  0  0  0  0  0  0
  138.0570  135.9500  155.0370 H   0  0  0  0  0  0  0  0  0  0  0  0
  139.1820  138.1470  155.7570 C   0  0  0  0  0  2  0  0  0  0  0  0
  140.0340  137.7510  154.6890 O   0  0  0  0  0  0  0  0  0  0  0  0
  140.5550  138.8660  153.9660 C   0  0  0  0  0  2  0  0  0  0  0  0
  142.0280  139.0260  154.3250 C   0  0  0  0  0  2  0  0  0  0  0  0
  142.1440  139.5670  155.6390 O   0  0  0  0  0  0  0  0  0  0  0  0
  143.5070  139.8340  155.9670 C   0  0  0  0  0  2  0  0  0  0  0  0
  144.3430  139.7930  154.6950 C   0  0  0  0  0  2  0  0  0  0  0  0
  145.4640  137.7650  154.3020 C   0  0  0  0  0  1  0  0  0  0  0  0
  145.5310  139.0390  154.9300 O   0  0  0  0  0  0  0  0  0  0  0  0
  2  1  1  0  0  0  0
  3  2  1  0  0  0  0
  4  3  1  0  0  0  0
  5  4  1  0  0  0  0
  6  5  1  0  0  0  0
  6  8  1  0  0  0  0
  7  6  2  0  0  0  0
  8  9  1  0  0  0  0
 10  8  1  0  0  0  0
 10 11  1  0  0  0  0
 11 16  1  0  0  0  0
 12 11  2  0  0  0  0
 12 13  1  0  0  0  0
 13 14  2  0  0  0  0
 14 15  1  0  0  0  0
 14 19  1  0  0  0  0
 15 17  1  0  0  0  0
 16 15  2  0  0  0  0
 17 18  1  0  0  0  0
 20 19  1  0  0  0  0
 21  1  1  0  0  0  0
 21 22  1  0  0  0  0
 22 23  1  0  0  0  0
 23 24  1  0  0  0  0
 24 25  1  0  0  0  0
 25 28  1  0  0  0  0
 26 27  2  0  0  0  0
 26 30  1  0  0  0  0
 28 29  1  0  0  0  0
 28 26  1  0  0  0  0
 31 30  1  0  0  0  0
 32 33  1  0  0  0  0
 32 31  1  0  0  0  0
 33 34  1  0  0  0  0
 34 35  1  0  0  0  0
 36 38  1  0  0  0  0
 36 35  1  0  0  0  0
 37 38  1  0  0  0  0
M  END
>  <MODEL>
3

>  <REMARK>
 VINA RESULT:    -5.674      5.429      9.518
 INTER + INTRA:         -15.492
 INTER:                 -12.727
 INTRA:                  -2.765
 UNBOUND:                -2.355
  Name = CHEMBL80157
  25 active torsions:
  status: ('A' for Active; 'I' for Inactive)
    1  A    between atoms: C_1  and  O_2
    2  A    between atoms: O_2  and  C_3
    3  A    between atoms: C_3  and  C_4
    4  A    between atoms: C_4  and  O_5
    5  A    between atoms: O_5  and  C_6
    6  A    between atoms: C_6  and  C_7
    7  A    between atoms: C_7  and  O_8
    8  A    between atoms: O_8  and  C_9
    9  A    between atoms: C_9  and  C_10
   10  A    between atoms: N_12  and  C_13
   11  A    between atoms: C_13  and  C_14
   12  A    between atoms: C_14  and  C_15
   13  A    between atoms: C_15  and  C_16
   14  A    between atoms: C_16  and  C_17
   15  A    between atoms: C_17  and  C_18
   16  A    between atoms: C_18  and  C_19
   17  A    between atoms: C_19  and  C_20
   18  A    between atoms: C_20  and  C_21
   19  A    between atoms: C_21  and  C_22
   20  A    between atoms: C_22  and  C_23
   21  A    between atoms: N_25  and  C_26
   22  A    between atoms: C_26  and  C_27
   23  A    between atoms: C_30  and  O_31
   24  A    between atoms: C_32  and  O_33
   25  A    between atoms: O_33  and  C_34
                            x       y       z     vdW  Elec       q    Type
                         _______ _______ _______ _____ _____    ______ ____

>  <TORSDO>
F 23

>  <SCORE>
-5.674

>  <RMSD_LB>
5.429

>  <RMSD_UB>
9.518

$$$$
CHEMBL80157
 OpenBabel10172500063D

 38 38  0  0  0  0  0  0  0  0999 V2000
  148.7200  138.5070  153.5650 C   0  0  0  0  0  2  0  0  0  0  0  0
  147.5840  137.8720  154.3590 C   0  0  0  0  0  2  0  0  0  0  0  0
  146.2450  138.0510  153.6430 C   0  0  0  0  0  2  0  0  0  0  0  0
  145.6560  136.6940  153.2740 C   0  0  0  0  0  2  0  0  0  0  0  0
  145.9530  136.2960  151.8280 C   0  0  0  0  0  2  0  0  0  0  0  0
  144.7120  136.4340  150.9730 C   0  0  0  0  0  0  0  0  0  0  0  0
  144.6780  136.1210  149.7780 O   0  0  0  0  0  0  0  0  0  0  0  0
  143.6140  136.9220  151.6380 N   0  0  0  0  0  0  0  0  0  0  0  0
  143.6810  137.1480  152.5940 H   0  0  0  0  0  0  0  0  0  0  0  0
  142.3650  137.1070  150.9420 C   0  0  0  0  0  2  0  0  0  0  0  0
  141.3220  137.7610  151.8080 C   0  0  0  0  0  0  0  0  0  0  0  0
  140.0660  138.0890  151.2850 C   0  0  0  0  0  3  0  0  0  0  0  0
  139.0800  138.6370  152.1060 C   0  0  0  0  0  3  0  0  0  0  0  0
  139.3400  138.8700  153.4600 C   0  0  0  0  0  0  0  0  0  0  0  0
  140.6020  138.5890  153.9980 C   0  0  0  0  0  0  0  0  0  0  0  0
  141.5850  138.0450  153.1570 C   0  0  0  0  0  3  0  0  0  0  0  0
  141.0310  138.7650  155.2870 O   0  0  0  0  0  0  0  0  0  0  0  0
  140.5900  137.8300  156.2620 C   0  0  0  0  0  1  0  0  0  0  0  0
  138.3260  139.3690  154.2310 O   0  0  0  0  0  0  0  0  0  0  0  0
  137.4420  139.1080  154.0660 H   0  0  0  0  0  0  0  0  0  0  0  0
  148.1810  139.5040  152.5420 C   0  0  0  0  0  2  0  0  0  0  0  0
  148.5660  140.9300  152.9260 C   0  0  0  0  0  2  0  0  0  0  0  0
  147.7830  141.9480  152.1030 C   0  0  0  0  0  2  0  0  0  0  0  0
  146.3930  142.1790  152.6920 C   0  0  0  0  0  2  0  0  0  0  0  0
  145.4010  142.5420  151.5940 C   0  0  0  0  0  2  0  0  0  0  0  0
  144.6160  140.4810  150.5360 C   0  0  0  0  0  0  0  0  0  0  0  0
  143.8190  140.2700  151.4500 O   0  0  0  0  0  0  0  0  0  0  0  0
  145.4320  141.5950  150.5050 N   0  0  0  0  0  0  0  0  0  0  0  0
  146.0350  141.7420  149.7400 H   0  0  0  0  0  0  0  0  0  0  0  0
  144.7520  139.5530  149.3290 C   0  0  0  0  0  2  0  0  0  0  0  0
  144.1290  140.1390  148.1920 O   0  0  0  0  0  0  0  0  0  0  0  0
  144.2830  139.3440  147.0160 C   0  0  0  0  0  2  0  0  0  0  0  0
  142.9880  138.5740  146.7830 C   0  0  0  0  0  2  0  0  0  0  0  0
  143.2430  137.1740  146.8670 O   0  0  0  0  0  0  0  0  0  0  0  0
  142.2700  136.4300  146.1340 C   0  0  0  0  0  2  0  0  0  0  0  0
  141.7720  137.2730  144.9670 C   0  0  0  0  0  2  0  0  0  0  0  0
  139.8760  137.6960  143.6450 C   0  0  0  0  0  1  0  0  0  0  0  0
  140.3520  137.1720  144.8780 O   0  0  0  0  0  0  0  0  0  0  0  0
  1  2  1  0  0  0  0
  3  2  1  0  0  0  0
  4  3  1  0  0  0  0
  5  4  1  0  0  0  0
  6  8  1  0  0  0  0
  6  5  1  0  0  0  0
  7  6  2  0  0  0  0
  8  9  1  0  0  0  0
 10  8  1  0  0  0  0
 10 11  1  0  0  0  0
 11 16  1  0  0  0  0
 12 11  2  0  0  0  0
 12 13  1  0  0  0  0
 13 14  2  0  0  0  0
 14 15  1  0  0  0  0
 14 19  1  0  0  0  0
 15 17  1  0  0  0  0
 16 15  2  0  0  0  0
 17 18  1  0  0  0  0
 20 19  1  0  0  0  0
 21 22  1  0  0  0  0
 21  1  1  0  0  0  0
 23 24  1  0  0  0  0
 23 22  1  0  0  0  0
 25 24  1  0  0  0  0
 26 27  2  0  0  0  0
 28 26  1  0  0  0  0
 28 25  1  0  0  0  0
 29 28  1  0  0  0  0
 30 26  1  0  0  0  0
 31 30  1  0  0  0  0
 32 31  1  0  0  0  0
 33 34  1  0  0  0  0
 33 32  1  0  0  0  0
 35 34  1  0  0  0  0
 36 35  1  0  0  0  0
 37 38  1  0  0  0  0
 38 36  1  0  0  0  0
M  END
>  <MODEL>
4

>  <REMARK>
 VINA RESULT:    -5.505      2.441      3.272
 INTER + INTRA:         -15.100
 INTER:                 -12.453
 INTRA:                  -2.648
 UNBOUND:                -2.355
  Name = CHEMBL80157
  25 active torsions:
  status: ('A' for Active; 'I' for Inactive)
    1  A    between atoms: C_1  and  O_2
    2  A    between atoms: O_2  and  C_3
    3  A    between atoms: C_3  and  C_4
    4  A    between atoms: C_4  and  O_5
    5  A    between atoms: O_5  and  C_6
    6  A    between atoms: C_6  and  C_7
    7  A    between atoms: C_7  and  O_8
    8  A    between atoms: O_8  and  C_9
    9  A    between atoms: C_9  and  C_10
   10  A    between atoms: N_12  and  C_13
   11  A    between atoms: C_13  and  C_14
   12  A    between atoms: C_14  and  C_15
   13  A    between atoms: C_15  and  C_16
   14  A    between atoms: C_16  and  C_17
   15  A    between atoms: C_17  and  C_18
   16  A    between atoms: C_18  and  C_19
   17  A    between atoms: C_19  and  C_20
   18  A    between atoms: C_20  and  C_21
   19  A    between atoms: C_21  and  C_22
   20  A    between atoms: C_22  and  C_23
   21  A    between atoms: N_25  and  C_26
   22  A    between atoms: C_26  and  C_27
   23  A    between atoms: C_30  and  O_31
   24  A    between atoms: C_32  and  O_33
   25  A    between atoms: O_33  and  C_34
                            x       y       z     vdW  Elec       q    Type
                         _______ _______ _______ _____ _____    ______ ____

>  <TORSDO>
F 23

>  <SCORE>
-5.505

>  <RMSD_LB>
2.441

>  <RMSD_UB>
3.272

$$$$
CHEMBL80157
 OpenBabel10172500063D

 38 38  0  0  0  0  0  0  0  0999 V2000
  140.9040  140.0250  149.9810 C   0  0  0  0  0  2  0  0  0  0  0  0
  141.7570  139.3480  151.0470 C   0  0  0  0  0  2  0  0  0  0  0  0
  141.7130  137.8270  150.9030 C   0  0  0  0  0  2  0  0  0  0  0  0
  142.9200  137.1940  151.5850 C   0  0  0  0  0  2  0  0  0  0  0  0
  143.8740  136.5260  150.5930 C   0  0  0  0  0  2  0  0  0  0  0  0
  144.8280  137.5420  150.0050 C   0  0  0  0  0  0  0  0  0  0  0  0
  144.8590  137.8190  148.8020 O   0  0  0  0  0  0  0  0  0  0  0  0
  145.6510  138.1470  150.9220 N   0  0  0  0  0  0  0  0  0  0  0  0
  145.5850  137.9050  151.8740 H   0  0  0  0  0  0  0  0  0  0  0  0
  146.6130  139.1340  150.4980 C   0  0  0  0  0  2  0  0  0  0  0  0
  147.2200  139.8750  151.6580 C   0  0  0  0  0  0  0  0  0  0  0  0
  147.5550  141.2290  151.5420 C   0  0  0  0  0  3  0  0  0  0  0  0
  148.0590  141.9290  152.6390 C   0  0  0  0  0  3  0  0  0  0  0  0
  148.2400  141.2810  153.8650 C   0  0  0  0  0  0  0  0  0  0  0  0
  147.9520  139.9170  153.9950 C   0  0  0  0  0  0  0  0  0  0  0  0
  147.4530  139.2260  152.8810 C   0  0  0  0  0  3  0  0  0  0  0  0
  148.0810  139.1270  155.1070 O   0  0  0  0  0  0  0  0  0  0  0  0
  147.2430  137.9820  155.2030 C   0  0  0  0  0  1  0  0  0  0  0  0
  148.6970  142.0220  154.9200 O   0  0  0  0  0  0  0  0  0  0  0  0
  148.6230  141.6880  155.7920 H   0  0  0  0  0  0  0  0  0  0  0  0
  139.4350  139.6330  150.1250 C   0  0  0  0  0  2  0  0  0  0  0  0
  138.5320  140.6950  149.5050 C   0  0  0  0  0  2  0  0  0  0  0  0
  137.3840  140.0520  148.7330 C   0  0  0  0  0  2  0  0  0  0  0  0
  137.3330  138.5450  148.9760 C   0  0  0  0  0  2  0  0  0  0  0  0
  136.3620  137.8810  148.0090 C   0  0  0  0  0  2  0  0  0  0  0  0
  134.0130  137.2120  147.8800 C   0  0  0  0  0  0  0  0  0  0  0  0
  134.0580  137.1520  146.6510 O   0  0  0  0  0  0  0  0  0  0  0  0
  135.1110  137.5440  148.6480 N   0  0  0  0  0  0  0  0  0  0  0  0
  135.0410  137.5510  149.6300 H   0  0  0  0  0  0  0  0  0  0  0  0
  132.7490  136.8870  148.6760 C   0  0  0  0  0  2  0  0  0  0  0  0
  133.0870  136.5840  150.0240 O   0  0  0  0  0  0  0  0  0  0  0  0
  132.5730  135.3210  150.4440 C   0  0  0  0  0  2  0  0  0  0  0  0
  133.5690  134.2380  150.0410 C   0  0  0  0  0  2  0  0  0  0  0  0
  132.9240  133.2850  149.2000 O   0  0  0  0  0  0  0  0  0  0  0  0
  133.2450  133.5100  147.8280 C   0  0  0  0  0  2  0  0  0  0  0  0
  134.6270  132.9400  147.5390 C   0  0  0  0  0  2  0  0  0  0  0  0
  136.5830  134.2170  147.8010 C   0  0  0  0  0  1  0  0  0  0  0  0
  135.4540  133.9580  146.9760 O   0  0  0  0  0  0  0  0  0  0  0  0
  1 21  1  0  0  0  0
  1  2  1  0  0  0  0
  3  2  1  0  0  0  0
  3  4  1  0  0  0  0
  5  4  1  0  0  0  0
  6  5  1  0  0  0  0
  6  8  1  0  0  0  0
  7  6  2  0  0  0  0
  8  9  1  0  0  0  0
 10  8  1  0  0  0  0
 10 11  1  0  0  0  0
 11 16  1  0  0  0  0
 12 11  2  0  0  0  0
 12 13  1  0  0  0  0
 13 14  2  0  0  0  0
 14 15  1  0  0  0  0
 14 19  1  0  0  0  0
 15 17  1  0  0  0  0
 16 15  2  0  0  0  0
 17 18  1  0  0  0  0
 19 20  1  0  0  0  0
 22 21  1  0  0  0  0
 23 24  1  0  0  0  0
 23 22  1  0  0  0  0
 25 28  1  0  0  0  0
 25 24  1  0  0  0  0
 26 28  1  0  0  0  0
 26 30  1  0  0  0  0
 27 26  2  0  0  0  0
 28 29  1  0  0  0  0
 30 31  1  0  0  0  0
 31 32  1  0  0  0  0
 33 32  1  0  0  0  0
 34 33  1  0  0  0  0
 35 34  1  0  0  0  0
 36 35  1  0  0  0  0
 38 36  1  0  0  0  0
 38 37  1  0  0  0  0
M  END
>  <MODEL>
5

>  <REMARK>
 VINA RESULT:    -5.492      5.153     10.351
 INTER + INTRA:         -15.071
 INTER:                 -13.445
 INTRA:                  -1.626
 UNBOUND:                -2.355
  Name = CHEMBL80157
  25 active torsions:
  status: ('A' for Active; 'I' for Inactive)
    1  A    between atoms: C_1  and  O_2
    2  A    between atoms: O_2  and  C_3
    3  A    between atoms: C_3  and  C_4
    4  A    between atoms: C_4  and  O_5
    5  A    between atoms: O_5  and  C_6
    6  A    between atoms: C_6  and  C_7
    7  A    between atoms: C_7  and  O_8
    8  A    between atoms: O_8  and  C_9
    9  A    between atoms: C_9  and  C_10
   10  A    between atoms: N_12  and  C_13
   11  A    between atoms: C_13  and  C_14
   12  A    between atoms: C_14  and  C_15
   13  A    between atoms: C_15  and  C_16
   14  A    between atoms: C_16  and  C_17
   15  A    between atoms: C_17  and  C_18
   16  A    between atoms: C_18  and  C_19
   17  A    between atoms: C_19  and  C_20
   18  A    between atoms: C_20  and  C_21
   19  A    between atoms: C_21  and  C_22
   20  A    between atoms: C_22  and  C_23
   21  A    between atoms: N_25  and  C_26
   22  A    between atoms: C_26  and  C_27
   23  A    between atoms: C_30  and  O_31
   24  A    between atoms: C_32  and  O_33
   25  A    between atoms: O_33  and  C_34
                            x       y       z     vdW  Elec       q    Type
                         _______ _______ _______ _____ _____    ______ ____

>  <TORSDO>
F 23

>  <SCORE>
-5.492

>  <RMSD_LB>
5.153

>  <RMSD_UB>
10.351

$$$$
CHEMBL80157
 OpenBabel10172500063D

 38 38  0  0  0  0  0  0  0  0999 V2000
  140.8160  140.0110  150.0190 C   0  0  0  0  0  2  0  0  0  0  0  0
  141.6450  139.2370  151.0380 C   0  0  0  0  0  2  0  0  0  0  0  0
  141.6000  137.7350  150.7550 C   0  0  0  0  0  2  0  0  0  0  0  0
  142.8830  137.0670  151.2360 C   0  0  0  0  0  2  0  0  0  0  0  0
  143.8150  136.6820  150.0870 C   0  0  0  0  0  2  0  0  0  0  0  0
  144.5880  137.8890  149.6020 C   0  0  0  0  0  0  0  0  0  0  0  0
  144.5290  138.3060  148.4410 O   0  0  0  0  0  0  0  0  0  0  0  0
  145.3540  138.4980  150.5650 N   0  0  0  0  0  0  0  0  0  0  0  0
  145.3640  138.1400  151.4820 H   0  0  0  0  0  0  0  0  0  0  0  0
  146.1460  139.6580  150.2400 C   0  0  0  0  0  2  0  0  0  0  0  0
  146.7530  140.2950  151.4600 C   0  0  0  0  0  0  0  0  0  0  0  0
  146.4040  141.5990  151.8310 C   0  0  0  0  0  3  0  0  0  0  0  0
  146.9190  142.1640  152.9980 C   0  0  0  0  0  3  0  0  0  0  0  0
  147.7950  141.4350  153.8060 C   0  0  0  0  0  0  0  0  0  0  0  0
  148.1920  140.1440  153.4360 C   0  0  0  0  0  0  0  0  0  0  0  0
  147.6710  139.5930  152.2560 C   0  0  0  0  0  3  0  0  0  0  0  0
  149.0460  139.2990  154.0950 O   0  0  0  0  0  0  0  0  0  0  0  0
  148.8740  137.9020  153.8960 C   0  0  0  0  0  1  0  0  0  0  0  0
  148.2390  142.0190  154.9600 O   0  0  0  0  0  0  0  0  0  0  0  0
  148.6410  141.4950  155.6250 H   0  0  0  0  0  0  0  0  0  0  0  0
  139.3390  139.6360  150.1170 C   0  0  0  0  0  2  0  0  0  0  0  0
  138.4630  140.7540  149.5600 C   0  0  0  0  0  2  0  0  0  0  0  0
  137.3350  140.1880  148.7030 C   0  0  0  0  0  2  0  0  0  0  0  0
  137.3240  138.6620  148.7460 C   0  0  0  0  0  2  0  0  0  0  0  0
  136.4030  138.1030  147.6690 C   0  0  0  0  0  2  0  0  0  0  0  0
  134.1220  137.2720  147.3740 C   0  0  0  0  0  0  0  0  0  0  0  0
  134.2310  137.2940  146.1480 O   0  0  0  0  0  0  0  0  0  0  0  0
  135.1530  137.6350  148.2180 N   0  0  0  0  0  0  0  0  0  0  0  0
  135.0340  137.5750  149.1940 H   0  0  0  0  0  0  0  0  0  0  0  0
  132.8490  136.8050  148.0800 C   0  0  0  0  0  2  0  0  0  0  0  0
  133.1160  136.5650  149.4570 O   0  0  0  0  0  0  0  0  0  0  0  0
  132.9230  135.1990  149.8190 C   0  0  0  0  0  2  0  0  0  0  0  0
  134.2910  134.5460  149.9810 C   0  0  0  0  0  2  0  0  0  0  0  0
  135.2520  135.5330  150.3460 O   0  0  0  0  0  0  0  0  0  0  0  0
  136.0790  135.0750  151.4150 C   0  0  0  0  0  2  0  0  0  0  0  0
  135.2280  134.2830  152.4000 C   0  0  0  0  0  2  0  0  0  0  0  0
  134.0670  135.3640  154.1330 C   0  0  0  0  0  1  0  0  0  0  0  0
  135.3270  134.8710  153.6960 O   0  0  0  0  0  0  0  0  0  0  0  0
  1 21  1  0  0  0  0
  1  2  1  0  0  0  0
  3  2  1  0  0  0  0
  3  4  1  0  0  0  0
  5  4  1  0  0  0  0
  6  5  1  0  0  0  0
  6  8  1  0  0  0  0
  7  6  2  0  0  0  0
  8  9  1  0  0  0  0
 10  8  1  0  0  0  0
 10 11  1  0  0  0  0
 11 12  2  0  0  0  0
 11 16  1  0  0  0  0
 12 13  1  0  0  0  0
 13 14  2  0  0  0  0
 14 19  1  0  0  0  0
 15 14  1  0  0  0  0
 15 17  1  0  0  0  0
 16 15  2  0  0  0  0
 18 17  1  0  0  0  0
 19 20  1  0  0  0  0
 22 21  1  0  0  0  0
 23 24  1  0  0  0  0
 23 22  1  0  0  0  0
 25 28  1  0  0  0  0
 25 24  1  0  0  0  0
 26 30  1  0  0  0  0
 26 28  1  0  0  0  0
 27 26  2  0  0  0  0
 28 29  1  0  0  0  0
 30 31  1  0  0  0  0
 31 32  1  0  0  0  0
 32 33  1  0  0  0  0
 33 34  1  0  0  0  0
 34 35  1  0  0  0  0
 35 36  1  0  0  0  0
 36 38  1  0  0  0  0
 38 37  1  0  0  0  0
M  END
>  <MODEL>
6

>  <REMARK>
 VINA RESULT:    -5.471      4.584     10.486
 INTER + INTRA:         -15.021
 INTER:                 -13.290
 INTRA:                  -1.732
 UNBOUND:                -2.355
  Name = CHEMBL80157
  25 active torsions:
  status: ('A' for Active; 'I' for Inactive)
    1  A    between atoms: C_1  and  O_2
    2  A    between atoms: O_2  and  C_3
    3  A    between atoms: C_3  and  C_4
    4  A    between atoms: C_4  and  O_5
    5  A    between atoms: O_5  and  C_6
    6  A    between atoms: C_6  and  C_7
    7  A    between atoms: C_7  and  O_8
    8  A    between atoms: O_8  and  C_9
    9  A    between atoms: C_9  and  C_10
   10  A    between atoms: N_12  and  C_13
   11  A    between atoms: C_13  and  C_14
   12  A    between atoms: C_14  and  C_15
   13  A    between atoms: C_15  and  C_16
   14  A    between atoms: C_16  and  C_17
   15  A    between atoms: C_17  and  C_18
   16  A    between atoms: C_18  and  C_19
   17  A    between atoms: C_19  and  C_20
   18  A    between atoms: C_20  and  C_21
   19  A    between atoms: C_21  and  C_22
   20  A    between atoms: C_22  and  C_23
   21  A    between atoms: N_25  and  C_26
   22  A    between atoms: C_26  and  C_27
   23  A    between atoms: C_30  and  O_31
   24  A    between atoms: C_32  and  O_33
   25  A    between atoms: O_33  and  C_34
                            x       y       z     vdW  Elec       q    Type
                         _______ _______ _______ _____ _____    ______ ____

>  <TORSDO>
F 23

>  <SCORE>
-5.471

>  <RMSD_LB>
4.584

>  <RMSD_UB>
10.486

$$$$
CHEMBL80157
 OpenBabel10172500063D

 38 38  0  0  0  0  0  0  0  0999 V2000
  143.2400  136.7880  149.1910 C   0  0  0  0  0  2  0  0  0  0  0  0
  144.6660  136.4690  149.6240 C   0  0  0  0  0  2  0  0  0  0  0  0
  145.4790  137.7480  149.8230 C   0  0  0  0  0  2  0  0  0  0  0  0
  145.8190  138.3760  148.4760 C   0  0  0  0  0  2  0  0  0  0  0  0
  144.9020  139.5480  148.1240 C   0  0  0  0  0  2  0  0  0  0  0  0
  144.9360  140.5950  149.2160 C   0  0  0  0  0  0  0  0  0  0  0  0
  144.0120  140.7600  150.0200 O   0  0  0  0  0  0  0  0  0  0  0  0
  146.0870  141.3430  149.2520 N   0  0  0  0  0  0  0  0  0  0  0  0
  146.8030  141.1700  148.6000 H   0  0  0  0  0  0  0  0  0  0  0  0
  146.2500  142.3800  150.2400 C   0  0  0  0  0  2  0  0  0  0  0  0
  146.7020  141.8360  151.5690 C   0  0  0  0  0  0  0  0  0  0  0  0
  146.2390  142.3990  152.7640 C   0  0  0  0  0  3  0  0  0  0  0  0
  146.6100  141.8520  153.9930 C   0  0  0  0  0  3  0  0  0  0  0  0
  147.4550  140.7390  154.0420 C   0  0  0  0  0  0  0  0  0  0  0  0
  147.9650  140.1840  152.8620 C   0  0  0  0  0  0  0  0  0  0  0  0
  147.5880  140.7490  151.6350 C   0  0  0  0  0  3  0  0  0  0  0  0
  148.8070  139.1120  152.7260 O   0  0  0  0  0  0  0  0  0  0  0  0
  148.2230  137.8170  152.6650 C   0  0  0  0  0  1  0  0  0  0  0  0
  147.7550  140.2160  155.2700 O   0  0  0  0  0  0  0  0  0  0  0  0
  147.1380  140.2870  155.9720 H   0  0  0  0  0  0  0  0  0  0  0  0
  142.2550  136.5480  150.3320 C   0  0  0  0  0  2  0  0  0  0  0  0
  142.0810  137.8130  151.1670 C   0  0  0  0  0  2  0  0  0  0  0  0
  141.3150  137.5190  152.4520 C   0  0  0  0  0  2  0  0  0  0  0  0
  140.5010  138.7320  152.8970 C   0  0  0  0  0  2  0  0  0  0  0  0
  139.0090  138.4330  152.8170 C   0  0  0  0  0  2  0  0  0  0  0  0
  137.7990  137.6270  150.8500 C   0  0  0  0  0  0  0  0  0  0  0  0
  137.5690  136.5440  151.3880 O   0  0  0  0  0  0  0  0  0  0  0  0
  138.4880  138.6410  151.4870 N   0  0  0  0  0  0  0  0  0  0  0  0
  138.6250  139.5040  151.0320 H   0  0  0  0  0  0  0  0  0  0  0  0
  137.3090  137.9700  149.4430 C   0  0  0  0  0  2  0  0  0  0  0  0
  136.2770  137.0710  149.0540 O   0  0  0  0  0  0  0  0  0  0  0  0
  136.6880  136.1900  148.0090 C   0  0  0  0  0  2  0  0  0  0  0  0
  136.4230  134.7570  148.4560 C   0  0  0  0  0  2  0  0  0  0  0  0
  135.0840  134.3940  148.1290 O   0  0  0  0  0  0  0  0  0  0  0  0
  134.3780  133.9390  149.2830 C   0  0  0  0  0  2  0  0  0  0  0  0
  133.0560  134.6890  149.3870 C   0  0  0  0  0  2  0  0  0  0  0  0
  132.7810  136.9760  148.9200 C   0  0  0  0  0  1  0  0  0  0  0  0
  132.9910  135.6840  148.3660 O   0  0  0  0  0  0  0  0  0  0  0  0
  1  2  1  0  0  0  0
  1 21  1  0  0  0  0
  2  3  1  0  0  0  0
  4  3  1  0  0  0  0
  5  4  1  0  0  0  0
  5  6  1  0  0  0  0
  6  8  1  0  0  0  0
  6  7  2  0  0  0  0
  8 10  1  0  0  0  0
  9  8  1  0  0  0  0
 10 11  1  0  0  0  0
 11 16  2  0  0  0  0
 11 12  1  0  0  0  0
 12 13  2  0  0  0  0
 13 14  1  0  0  0  0
 14 19  1  0  0  0  0
 15 14  2  0  0  0  0
 16 15  1  0  0  0  0
 17 15  1  0  0  0  0
 18 17  1  0  0  0  0
 19 20  1  0  0  0  0
 21 22  1  0  0  0  0
 22 23  1  0  0  0  0
 23 24  1  0  0  0  0
 25 24  1  0  0  0  0
 26 27  2  0  0  0  0
 26 28  1  0  0  0  0
 28 25  1  0  0  0  0
 29 28  1  0  0  0  0
 30 26  1  0  0  0  0
 31 30  1  0  0  0  0
 32 33  1  0  0  0  0
 32 31  1  0  0  0  0
 34 33  1  0  0  0  0
 34 35  1  0  0  0  0
 35 36  1  0  0  0  0
 38 37  1  0  0  0  0
 38 36  1  0  0  0  0
M  END
>  <MODEL>
7

>  <REMARK>
 VINA RESULT:    -5.464      3.840      9.403
 INTER + INTRA:         -15.006
 INTER:                 -13.071
 INTRA:                  -1.935
 UNBOUND:                -2.355
  Name = CHEMBL80157
  25 active torsions:
  status: ('A' for Active; 'I' for Inactive)
    1  A    between atoms: C_1  and  O_2
    2  A    between atoms: O_2  and  C_3
    3  A    between atoms: C_3  and  C_4
    4  A    between atoms: C_4  and  O_5
    5  A    between atoms: O_5  and  C_6
    6  A    between atoms: C_6  and  C_7
    7  A    between atoms: C_7  and  O_8
    8  A    between atoms: O_8  and  C_9
    9  A    between atoms: C_9  and  C_10
   10  A    between atoms: N_12  and  C_13
   11  A    between atoms: C_13  and  C_14
   12  A    between atoms: C_14  and  C_15
   13  A    between atoms: C_15  and  C_16
   14  A    between atoms: C_16  and  C_17
   15  A    between atoms: C_17  and  C_18
   16  A    between atoms: C_18  and  C_19
   17  A    between atoms: C_19  and  C_20
   18  A    between atoms: C_20  and  C_21
   19  A    between atoms: C_21  and  C_22
   20  A    between atoms: C_22  and  C_23
   21  A    between atoms: N_25  and  C_26
   22  A    between atoms: C_26  and  C_27
   23  A    between atoms: C_30  and  O_31
   24  A    between atoms: C_32  and  O_33
   25  A    between atoms: O_33  and  C_34
                            x       y       z     vdW  Elec       q    Type
                         _______ _______ _______ _____ _____    ______ ____

>  <TORSDO>
F 23

>  <SCORE>
-5.464

>  <RMSD_LB>
3.840

>  <RMSD_UB>
9.403

$$$$
CHEMBL80157
 OpenBabel10172500063D

 38 38  0  0  0  0  0  0  0  0999 V2000
  138.1240  135.0560  145.7680 C   0  0  0  0  0  2  0  0  0  0  0  0
  138.7820  135.1990  144.4000 C   0  0  0  0  0  2  0  0  0  0  0  0
  138.1210  134.2790  143.3740 C   0  0  0  0  0  2  0  0  0  0  0  0
  136.6610  134.0390  143.7400 C   0  0  0  0  0  2  0  0  0  0  0  0
  136.3070  132.5530  143.8080 C   0  0  0  0  0  2  0  0  0  0  0  0
  135.9370  132.1580  145.2200 C   0  0  0  0  0  0  0  0  0  0  0  0
  136.1290  131.0260  145.6770 O   0  0  0  0  0  0  0  0  0  0  0  0
  135.3800  133.1680  145.9660 N   0  0  0  0  0  0  0  0  0  0  0  0
  135.2540  134.0590  145.5670 H   0  0  0  0  0  0  0  0  0  0  0  0
  134.9760  132.9280  147.3290 C   0  0  0  0  0  2  0  0  0  0  0  0
  134.3420  134.1400  147.9570 C   0  0  0  0  0  0  0  0  0  0  0  0
  134.0000  135.2510  147.1770 C   0  0  0  0  0  3  0  0  0  0  0  0
  133.3550  136.3470  147.7520 C   0  0  0  0  0  3  0  0  0  0  0  0
  133.0490  136.3480  149.1160 C   0  0  0  0  0  0  0  0  0  0  0  0
  133.4180  135.2670  149.9260 C   0  0  0  0  0  0  0  0  0  0  0  0
  134.0720  134.1760  149.3340 C   0  0  0  0  0  3  0  0  0  0  0  0
  133.2120  135.1080  151.2710 O   0  0  0  0  0  0  0  0  0  0  0  0
  133.9740  135.9200  152.1550 C   0  0  0  0  0  1  0  0  0  0  0  0
  132.3800  137.4280  149.6210 O   0  0  0  0  0  0  0  0  0  0  0  0
  132.5570  138.2860  149.2890 H   0  0  0  0  0  0  0  0  0  0  0  0
  139.0950  135.4370  146.8840 C   0  0  0  0  0  2  0  0  0  0  0  0
  138.6150  134.8860  148.2240 C   0  0  0  0  0  2  0  0  0  0  0  0
  138.5370  135.9920  149.2720 C   0  0  0  0  0  2  0  0  0  0  0  0
  137.0890  136.2790  149.6610 C   0  0  0  0  0  2  0  0  0  0  0  0
  136.7830  137.7650  149.5220 C   0  0  0  0  0  2  0  0  0  0  0  0
  138.0040  139.8810  149.3910 C   0  0  0  0  0  0  0  0  0  0  0  0
  137.1140  140.3970  148.7150 O   0  0  0  0  0  0  0  0  0  0  0  0
  137.9230  138.5840  149.8600 N   0  0  0  0  0  0  0  0  0  0  0  0
  138.6440  138.2190  150.4240 H   0  0  0  0  0  0  0  0  0  0  0  0
  139.2650  140.6370  149.8110 C   0  0  0  0  0  2  0  0  0  0  0  0
  140.4220  139.9020  149.4310 O   0  0  0  0  0  0  0  0  0  0  0  0
  141.4680  139.9950  150.3980 C   0  0  0  0  0  2  0  0  0  0  0  0
  142.8020  139.8030  149.6830 C   0  0  0  0  0  2  0  0  0  0  0  0
  143.4480  138.6350  150.1830 O   0  0  0  0  0  0  0  0  0  0  0  0
  143.2110  137.5130  149.3340 C   0  0  0  0  0  2  0  0  0  0  0  0
  143.9210  136.2950  149.9080 C   0  0  0  0  0  2  0  0  0  0  0  0
  142.7250  134.8080  148.5370 C   0  0  0  0  0  1  0  0  0  0  0  0
  144.0130  135.2810  148.9080 O   0  0  0  0  0  0  0  0  0  0  0  0
  1 21  1  0  0  0  0
  2  1  1  0  0  0  0
  3  4  1  0  0  0  0
  3  2  1  0  0  0  0
  4  5  1  0  0  0  0
  5  6  1  0  0  0  0
  6  7  2  0  0  0  0
  6  8  1  0  0  0  0
  8 10  1  0  0  0  0
  9  8  1  0  0  0  0
 10 11  1  0  0  0  0
 11 16  1  0  0  0  0
 12 13  1  0  0  0  0
 12 11  2  0  0  0  0
 13 14  2  0  0  0  0
 14 19  1  0  0  0  0
 14 15  1  0  0  0  0
 15 17  1  0  0  0  0
 16 15  2  0  0  0  0
 17 18  1  0  0  0  0
 20 19  1  0  0  0  0
 21 22  1  0  0  0  0
 22 23  1  0  0  0  0
 23 24  1  0  0  0  0
 25 24  1  0  0  0  0
 25 28  1  0  0  0  0
 26 30  1  0  0  0  0
 26 28  1  0  0  0  0
 27 26  2  0  0  0  0
 28 29  1  0  0  0  0
 31 30  1  0  0  0  0
 31 32  1  0  0  0  0
 33 34  1  0  0  0  0
 33 32  1  0  0  0  0
 35 36  1  0  0  0  0
 35 34  1  0  0  0  0
 37 38  1  0  0  0  0
 38 36  1  0  0  0  0
M  END
>  <MODEL>
8

>  <REMARK>
 VINA RESULT:    -5.363      6.365      9.627
 INTER + INTRA:         -14.772
 INTER:                 -12.422
 INTRA:                  -2.350
 UNBOUND:                -2.355
  Name = CHEMBL80157
  25 active torsions:
  status: ('A' for Active; 'I' for Inactive)
    1  A    between atoms: C_1  and  O_2
    2  A    between atoms: O_2  and  C_3
    3  A    between atoms: C_3  and  C_4
    4  A    between atoms: C_4  and  O_5
    5  A    between atoms: O_5  and  C_6
    6  A    between atoms: C_6  and  C_7
    7  A    between atoms: C_7  and  O_8
    8  A    between atoms: O_8  and  C_9
    9  A    between atoms: C_9  and  C_10
   10  A    between atoms: N_12  and  C_13
   11  A    between atoms: C_13  and  C_14
   12  A    between atoms: C_14  and  C_15
   13  A    between atoms: C_15  and  C_16
   14  A    between atoms: C_16  and  C_17
   15  A    between atoms: C_17  and  C_18
   16  A    between atoms: C_18  and  C_19
   17  A    between atoms: C_19  and  C_20
   18  A    between atoms: C_20  and  C_21
   19  A    between atoms: C_21  and  C_22
   20  A    between atoms: C_22  and  C_23
   21  A    between atoms: N_25  and  C_26
   22  A    between atoms: C_26  and  C_27
   23  A    between atoms: C_30  and  O_31
   24  A    between atoms: C_32  and  O_33
   25  A    between atoms: O_33  and  C_34
                            x       y       z     vdW  Elec       q    Type
                         _______ _______ _______ _____ _____    ______ ____

>  <TORSDO>
F 23

>  <SCORE>
-5.363

>  <RMSD_LB>
6.365

>  <RMSD_UB>
9.627

$$$$
CHEMBL80157
 OpenBabel10172500063D

 38 38  0  0  0  0  0  0  0  0999 V2000
  148.5920  138.3640  153.4830 C   0  0  0  0  0  2  0  0  0  0  0  0
  147.3940  137.4720  153.7870 C   0  0  0  0  0  2  0  0  0  0  0  0
  146.3290  137.5930  152.6970 C   0  0  0  0  0  2  0  0  0  0  0  0
  145.8850  136.2100  152.2350 C   0  0  0  0  0  2  0  0  0  0  0  0
  146.2350  135.9380  150.7710 C   0  0  0  0  0  2  0  0  0  0  0  0
  144.9840  135.9110  149.9210 C   0  0  0  0  0  0  0  0  0  0  0  0
  144.9660  135.4900  148.7600 O   0  0  0  0  0  0  0  0  0  0  0  0
  143.8570  136.3790  150.5520 N   0  0  0  0  0  0  0  0  0  0  0  0
  143.9130  136.6950  151.4830 H   0  0  0  0  0  0  0  0  0  0  0  0
  142.5950  136.4140  149.8560 C   0  0  0  0  0  2  0  0  0  0  0  0
  141.7160  137.5420  150.3250 C   0  0  0  0  0  0  0  0  0  0  0  0
  141.3390  138.5650  149.4470 C   0  0  0  0  0  3  0  0  0  0  0  0
  140.4730  139.5740  149.8670 C   0  0  0  0  0  3  0  0  0  0  0  0
  139.9780  139.5780  151.1740 C   0  0  0  0  0  0  0  0  0  0  0  0
  140.3730  138.5890  152.0850 C   0  0  0  0  0  0  0  0  0  0  0  0
  141.2500  137.5850  151.6480 C   0  0  0  0  0  3  0  0  0  0  0  0
  140.0000  138.4480  153.3950 O   0  0  0  0  0  0  0  0  0  0  0  0
  138.7130  137.9040  153.6600 C   0  0  0  0  0  1  0  0  0  0  0  0
  139.0990  140.5660  151.5240 O   0  0  0  0  0  0  0  0  0  0  0  0
  139.2020  141.4280  151.1740 H   0  0  0  0  0  0  0  0  0  0  0  0
  148.1840  139.5500  152.6120 C   0  0  0  0  0  2  0  0  0  0  0  0
  148.1990  140.8430  153.4230 C   0  0  0  0  0  2  0  0  0  0  0  0
  147.6910  142.0160  152.5910 C   0  0  0  0  0  2  0  0  0  0  0  0
  146.1740  142.1550  152.7060 C   0  0  0  0  0  2  0  0  0  0  0  0
  145.5780  142.6110  151.3810 C   0  0  0  0  0  2  0  0  0  0  0  0
  144.6880  140.5750  150.3570 C   0  0  0  0  0  0  0  0  0  0  0  0
  143.7460  140.5430  151.1490 O   0  0  0  0  0  0  0  0  0  0  0  0
  145.6410  141.5750  150.3760 N   0  0  0  0  0  0  0  0  0  0  0  0
  146.3620  141.5810  149.7060 H   0  0  0  0  0  0  0  0  0  0  0  0
  144.8740  139.5350  149.2520 C   0  0  0  0  0  2  0  0  0  0  0  0
  144.2740  139.9940  148.0460 O   0  0  0  0  0  0  0  0  0  0  0  0
  144.0810  138.9440  147.1000 C   0  0  0  0  0  2  0  0  0  0  0  0
  143.9750  139.5620  145.7100 C   0  0  0  0  0  2  0  0  0  0  0  0
  142.7160  139.2270  145.1320 O   0  0  0  0  0  0  0  0  0  0  0  0
  142.8650  138.8320  143.7680 C   0  0  0  0  0  2  0  0  0  0  0  0
  144.2850  138.3280  143.5470 C   0  0  0  0  0  2  0  0  0  0  0  0
  146.1160  138.4490  142.0780 C   0  0  0  0  0  1  0  0  0  0  0  0
  144.8800  139.0380  142.4630 O   0  0  0  0  0  0  0  0  0  0  0  0
  1  2  1  0  0  0  0
  3  2  1  0  0  0  0
  4  3  1  0  0  0  0
  5  4  1  0  0  0  0
  6  8  1  0  0  0  0
  6  5  1  0  0  0  0
  7  6  2  0  0  0  0
  8  9  1  0  0  0  0
 10 11  1  0  0  0  0
 10  8  1  0  0  0  0
 11 16  1  0  0  0  0
 12 13  1  0  0  0  0
 12 11  2  0  0  0  0
 13 14  2  0  0  0  0
 14 19  1  0  0  0  0
 14 15  1  0  0  0  0
 15 17  1  0  0  0  0
 16 15  2  0  0  0  0
 17 18  1  0  0  0  0
 20 19  1  0  0  0  0
 21 22  1  0  0  0  0
 21  1  1  0  0  0  0
 23 24  1  0  0  0  0
 23 22  1  0  0  0  0
 25 24  1  0  0  0  0
 26 28  1  0  0  0  0
 26 27  2  0  0  0  0
 28 25  1  0  0  0  0
 29 28  1  0  0  0  0
 30 26  1  0  0  0  0
 31 30  1  0  0  0  0
 32 31  1  0  0  0  0
 33 32  1  0  0  0  0
 34 33  1  0  0  0  0
 35 34  1  0  0  0  0
 36 35  1  0  0  0  0
 37 38  1  0  0  0  0
 38 36  1  0  0  0  0
M  END
>  <MODEL>
9

>  <REMARK>
 VINA RESULT:    -5.330      2.258      2.645
 INTER + INTRA:         -14.695
 INTER:                 -12.340
 INTRA:                  -2.355
 UNBOUND:                -2.355
  Name = CHEMBL80157
  25 active torsions:
  status: ('A' for Active; 'I' for Inactive)
    1  A    between atoms: C_1  and  O_2
    2  A    between atoms: O_2  and  C_3
    3  A    between atoms: C_3  and  C_4
    4  A    between atoms: C_4  and  O_5
    5  A    between atoms: O_5  and  C_6
    6  A    between atoms: C_6  and  C_7
    7  A    between atoms: C_7  and  O_8
    8  A    between atoms: O_8  and  C_9
    9  A    between atoms: C_9  and  C_10
   10  A    between atoms: N_12  and  C_13
   11  A    between atoms: C_13  and  C_14
   12  A    between atoms: C_14  and  C_15
   13  A    between atoms: C_15  and  C_16
   14  A    between atoms: C_16  and  C_17
   15  A    between atoms: C_17  and  C_18
   16  A    between atoms: C_18  and  C_19
   17  A    between atoms: C_19  and  C_20
   18  A    between atoms: C_20  and  C_21
   19  A    between atoms: C_21  and  C_22
   20  A    between atoms: C_22  and  C_23
   21  A    between atoms: N_25  and  C_26
   22  A    between atoms: C_26  and  C_27
   23  A    between atoms: C_30  and  O_31
   24  A    between atoms: C_32  and  O_33
   25  A    between atoms: O_33  and  C_34
                            x       y       z     vdW  Elec       q    Type
                         _______ _______ _______ _____ _____    ______ ____

>  <TORSDO>
F 23

>  <SCORE>
-5.330

>  <RMSD_LB>
2.258

>  <RMSD_UB>
2.645

$$$$
