CHEMBL5268379
 OpenBabel10172500573D

 36 36  0  0  0  0  0  0  0  0999 V2000
  143.0140  138.9650  154.2120 C   0  0  0  0  0  0  0  0  0  0  0  0
  141.6360  138.9630  154.4850 C   0  0  0  0  0  3  0  0  0  0  0  0
  140.7020  138.3550  153.6460 C   0  0  0  0  0  0  0  0  0  0  0  0
  141.1840  137.7180  152.5100 C   0  0  0  0  0  3  0  0  0  0  0  0
  142.5580  137.6640  152.2400 C   0  0  0  0  0  3  0  0  0  0  0  0
  143.4920  138.2460  153.1080 C   0  0  0  0  0  0  0  0  0  0  0  0
  143.2890  140.1090  156.2440 C   0  0  0  0  0  1  0  0  0  0  0  0
  143.8690  139.6880  155.0090 O   0  0  0  0  0  0  0  0  0  0  0  0
  139.2240  138.4410  153.9390 C   0  0  0  0  0  2  0  0  0  0  0  0
  138.8370  137.7380  155.1390 N   0  0  0  0  0  0  0  0  0  0  0  0
  137.7070  138.0980  155.8400 C   0  0  0  0  0  0  0  0  0  0  0  0
  136.9870  139.0270  155.5410 O   0  0  0  0  0  0  0  0  0  0  0  0
  139.3880  136.9890  155.4610 H   0  0  0  0  0  0  0  0  0  0  0  0
  137.4680  137.1860  157.0380 C   0  0  0  0  0  2  0  0  0  0  0  0
  136.9920  135.8110  156.5940 C   0  0  0  0  0  2  0  0  0  0  0  0
  135.4680  135.6910  156.6270 C   0  0  0  0  0  2  0  0  0  0  0  0
  134.9950  134.7600  155.5120 C   0  0  0  0  0  2  0  0  0  0  0  0
  135.0590  135.4320  154.1750 C   0  0  0  0  0  3  0  0  0  0  0  0
  135.7730  134.9430  153.1480 C   0  0  0  0  0  3  0  0  0  0  0  0
  135.8710  135.6270  151.8090 C   0  0  0  0  0  3  0  0  0  0  0  0
  136.9650  136.6960  151.8190 C   0  0  0  0  0  1  0  0  0  0  0  0
  136.1420  134.6100  150.7020 C   0  0  0  0  0  1  0  0  0  0  0  0
  144.8020  138.0830  152.7280 O   0  0  0  0  0  0  0  0  0  0  0  0
  145.0540  138.2590  151.3310 C   0  0  0  0  0  2  0  0  0  0  0  0
  146.3190  139.0810  151.1080 C   0  0  0  0  0  2  0  0  0  0  0  0
  146.2440  140.4210  151.8470 C   0  0  0  0  0  2  0  0  0  0  0  0
  147.3310  140.5060  152.9070 C   0  0  0  0  0  2  0  0  0  0  0  0
  146.8420  140.1260  154.2180 N   0  0  0  0  0  0  0  0  0  0  0  0
  147.3310  139.0980  154.9360 C   0  0  0  0  0  0  0  0  0  0  0  0
  148.3050  138.3220  154.6100 N   0  0  0  0  0  4  0  0  0  0  0  0
  146.7090  138.8980  156.1100 N   0  0  0  0  0  0  0  0  0  0  0  0
  146.1080  140.6530  154.6060 H   0  0  0  0  0  0  0  0  0  0  0  0
  148.7730  138.4520  153.7540 H   0  0  0  0  0  0  0  0  0  0  0  0
  148.5810  137.5960  155.2170 H   0  0  0  0  0  0  0  0  0  0  0  0
  145.9630  139.4810  156.3780 H   0  0  0  0  0  0  0  0  0  0  0  0
  147.0010  138.1670  156.7040 H   0  0  0  0  0  0  0  0  0  0  0  0
  1  2  1  0  0  0  0
  1  8  1  0  0  0  0
  3  9  1  0  0  0  0
  3  2  2  0  0  0  0
  4  3  1  0  0  0  0
  5  4  2  0  0  0  0
  5  6  1  0  0  0  0
  6  1  2  0  0  0  0
  8  7  1  0  0  0  0
  9 10  1  0  0  0  0
 10 13  1  0  0  0  0
 10 11  1  0  0  0  0
 11 14  1  0  0  0  0
 12 11  2  0  0  0  0
 15 16  1  0  0  0  0
 15 14  1  0  0  0  0
 17 16  1  0  0  0  0
 18 17  1  0  0  0  0
 19 18  2  0  0  0  0
 20 21  1  0  0  0  0
 20 19  1  0  0  0  0
 22 20  1  0  0  0  0
 23  6  1  0  0  0  0
 24 23  1  0  0  0  0
 25 24  1  0  0  0  0
 25 26  1  0  0  0  0
 26 27  1  0  0  0  0
 27 28  1  0  0  0  0
 28 32  1  0  0  0  0
 28 29  1  0  0  0  0
 29 31  1  0  0  0  0
 30 29  2  0  0  0  0
 30 34  1  0  0  0  0
 31 35  1  0  0  0  0
 31 36  1  0  0  0  0
 33 30  1  0  0  0  0
M  END
>  <MODEL>
1

>  <REMARK>
 VINA RESULT:    -6.994      0.000      0.000
 INTER + INTRA:         -14.815
 INTER:                 -12.515
 INTRA:                  -2.300
 UNBOUND:                -1.688
  Name = CHEMBL5268379
  18 active torsions:
  status: ('A' for Active; 'I' for Inactive)
    1  A    between atoms: C_1  and  O_2
    2  A    between atoms: O_2  and  C_3
    3  A    between atoms: C_5  and  C_6
    4  A    between atoms: C_6  and  N_7
    5  A    between atoms: C_8  and  C_10
    6  A    between atoms: C_10  and  C_11
    7  A    between atoms: C_11  and  C_12
    8  A    between atoms: C_12  and  C_13
    9  A    between atoms: C_13  and  C_14
   10  A    between atoms: C_15  and  C_16
   11  A    between atoms: C_16  and  C_17
   12  A    between atoms: C_16  and  C_18
   13  A    between atoms: C_21  and  O_22
   14  A    between atoms: O_22  and  C_23
   15  A    between atoms: C_23  and  C_24
   16  A    between atoms: C_24  and  C_25
   17  A    between atoms: C_25  and  C_26
   18  A    between atoms: C_26  and  N_27
                            x       y       z     vdW  Elec       q    Type
                         _______ _______ _______ _____ _____    ______ ____

>  <TORSDO>
F 15

>  <SCORE>
-6.994

>  <RMSD_LB>
0.000

>  <RMSD_UB>
0.000

$$$$
CHEMBL5268379
 OpenBabel10172500573D

 36 36  0  0  0  0  0  0  0  0999 V2000
  136.0000  135.6720  150.6710 C   0  0  0  0  0  0  0  0  0  0  0  0
  136.6850  136.5250  151.5520 C   0  0  0  0  0  3  0  0  0  0  0  0
  136.6690  136.3510  152.9350 C   0  0  0  0  0  0  0  0  0  0  0  0
  135.9510  135.2710  153.4350 C   0  0  0  0  0  3  0  0  0  0  0  0
  135.2980  134.3780  152.5740 C   0  0  0  0  0  3  0  0  0  0  0  0
  135.3520  134.5400  151.1830 C   0  0  0  0  0  0  0  0  0  0  0  0
  134.8490  136.7960  148.9610 C   0  0  0  0  0  1  0  0  0  0  0  0
  135.9520  135.9680  149.3300 O   0  0  0  0  0  0  0  0  0  0  0  0
  137.3570  137.3340  153.8500 C   0  0  0  0  0  2  0  0  0  0  0  0
  138.7170  137.6220  153.4600 N   0  0  0  0  0  0  0  0  0  0  0  0
  139.3420  138.7810  153.8650 C   0  0  0  0  0  0  0  0  0  0  0  0
  138.8110  139.6450  154.5280 O   0  0  0  0  0  0  0  0  0  0  0  0
  139.2060  136.9800  152.8970 H   0  0  0  0  0  0  0  0  0  0  0  0
  140.7860  138.8470  153.3790 C   0  0  0  0  0  2  0  0  0  0  0  0
  141.1130  137.6680  152.4740 C   0  0  0  0  0  2  0  0  0  0  0  0
  141.2590  138.0880  151.0110 C   0  0  0  0  0  2  0  0  0  0  0  0
  140.6920  137.0040  150.0980 C   0  0  0  0  0  2  0  0  0  0  0  0
  139.4280  137.4550  149.4330 C   0  0  0  0  0  3  0  0  0  0  0  0
  138.9820  138.7200  149.4990 C   0  0  0  0  0  3  0  0  0  0  0  0
  137.6950  139.1770  148.8620 C   0  0  0  0  0  3  0  0  0  0  0  0
  137.5520  140.6980  148.9470 C   0  0  0  0  0  1  0  0  0  0  0  0
  137.6240  138.7240  147.4050 C   0  0  0  0  0  1  0  0  0  0  0  0
  134.6920  133.5680  150.4700 O   0  0  0  0  0  0  0  0  0  0  0  0
  133.2960  133.8040  150.2710 C   0  0  0  0  0  2  0  0  0  0  0  0
  132.9030  133.5400  148.8210 C   0  0  0  0  0  2  0  0  0  0  0  0
  133.8630  132.5440  148.1620 C   0  0  0  0  0  2  0  0  0  0  0  0
  134.6020  133.2020  147.0070 C   0  0  0  0  0  2  0  0  0  0  0  0
  135.8260  133.8460  147.4420 N   0  0  0  0  0  0  0  0  0  0  0  0
  137.0580  133.3440  147.2320 C   0  0  0  0  0  0  0  0  0  0  0  0
  137.3540  132.2620  146.6010 N   0  0  0  0  0  4  0  0  0  0  0  0
  138.0530  134.0840  147.7490 N   0  0  0  0  0  0  0  0  0  0  0  0
  135.7520  134.7020  147.9200 H   0  0  0  0  0  0  0  0  0  0  0  0
  136.6390  131.7060  146.2150 H   0  0  0  0  0  0  0  0  0  0  0  0
  138.2960  131.9890  146.5060 H   0  0  0  0  0  0  0  0  0  0  0  0
  137.8470  134.9150  148.2340 H   0  0  0  0  0  0  0  0  0  0  0  0
  138.9880  133.7950  147.6430 H   0  0  0  0  0  0  0  0  0  0  0  0
  1  6  2  0  0  0  0
  1  2  1  0  0  0  0
  2  3  2  0  0  0  0
  3  4  1  0  0  0  0
  3  9  1  0  0  0  0
  5  4  2  0  0  0  0
  6  5  1  0  0  0  0
  7  8  1  0  0  0  0
  8  1  1  0  0  0  0
 10  9  1  0  0  0  0
 10 11  1  0  0  0  0
 11 12  2  0  0  0  0
 13 10  1  0  0  0  0
 14 11  1  0  0  0  0
 15 14  1  0  0  0  0
 16 15  1  0  0  0  0
 17 16  1  0  0  0  0
 18 19  2  0  0  0  0
 18 17  1  0  0  0  0
 20 21  1  0  0  0  0
 20 19  1  0  0  0  0
 22 20  1  0  0  0  0
 23  6  1  0  0  0  0
 24 23  1  0  0  0  0
 25 24  1  0  0  0  0
 26 25  1  0  0  0  0
 27 28  1  0  0  0  0
 27 26  1  0  0  0  0
 28 32  1  0  0  0  0
 29 28  1  0  0  0  0
 29 31  1  0  0  0  0
 30 29  2  0  0  0  0
 31 35  1  0  0  0  0
 33 30  1  0  0  0  0
 34 30  1  0  0  0  0
 36 31  1  0  0  0  0
M  END
>  <MODEL>
2

>  <REMARK>
 VINA RESULT:    -6.982      4.341      9.518
 INTER + INTRA:         -14.792
 INTER:                 -11.637
 INTRA:                  -3.155
 UNBOUND:                -1.688
  Name = CHEMBL5268379
  18 active torsions:
  status: ('A' for Active; 'I' for Inactive)
    1  A    between atoms: C_1  and  O_2
    2  A    between atoms: O_2  and  C_3
    3  A    between atoms: C_5  and  C_6
    4  A    between atoms: C_6  and  N_7
    5  A    between atoms: C_8  and  C_10
    6  A    between atoms: C_10  and  C_11
    7  A    between atoms: C_11  and  C_12
    8  A    between atoms: C_12  and  C_13
    9  A    between atoms: C_13  and  C_14
   10  A    between atoms: C_15  and  C_16
   11  A    between atoms: C_16  and  C_17
   12  A    between atoms: C_16  and  C_18
   13  A    between atoms: C_21  and  O_22
   14  A    between atoms: O_22  and  C_23
   15  A    between atoms: C_23  and  C_24
   16  A    between atoms: C_24  and  C_25
   17  A    between atoms: C_25  and  C_26
   18  A    between atoms: C_26  and  N_27
                            x       y       z     vdW  Elec       q    Type
                         _______ _______ _______ _____ _____    ______ ____

>  <TORSDO>
F 15

>  <SCORE>
-6.982

>  <RMSD_LB>
4.341

>  <RMSD_UB>
9.518

$$$$
CHEMBL5268379
 OpenBabel10172500573D

 36 36  0  0  0  0  0  0  0  0999 V2000
  146.1220  138.0410  149.7040 C   0  0  0  0  0  0  0  0  0  0  0  0
  147.1250  138.3110  150.6490 C   0  0  0  0  0  3  0  0  0  0  0  0
  147.4690  137.4140  151.6600 C   0  0  0  0  0  0  0  0  0  0  0  0
  146.7860  136.2050  151.7000 C   0  0  0  0  0  3  0  0  0  0  0  0
  145.8150  135.8910  150.7390 C   0  0  0  0  0  3  0  0  0  0  0  0
  145.5030  136.7840  149.7050 C   0  0  0  0  0  0  0  0  0  0  0  0
  146.6920  140.0730  148.6730 C   0  0  0  0  0  1  0  0  0  0  0  0
  145.7440  139.0150  148.8100 O   0  0  0  0  0  0  0  0  0  0  0  0
  148.5010  137.7740  152.7010 C   0  0  0  0  0  2  0  0  0  0  0  0
  148.6280  139.1970  152.9110 N   0  0  0  0  0  0  0  0  0  0  0  0
  148.3680  139.7600  154.1420 C   0  0  0  0  0  0  0  0  0  0  0  0
  147.9880  139.1350  155.1090 O   0  0  0  0  0  0  0  0  0  0  0  0
  148.9050  139.7750  152.1640 H   0  0  0  0  0  0  0  0  0  0  0  0
  148.6180  141.2630  154.1430 C   0  0  0  0  0  2  0  0  0  0  0  0
  147.9570  141.9290  152.9440 C   0  0  0  0  0  2  0  0  0  0  0  0
  146.4880  142.2610  153.2080 C   0  0  0  0  0  2  0  0  0  0  0  0
  145.6900  142.1610  151.9100 C   0  0  0  0  0  2  0  0  0  0  0  0
  144.9180  140.8800  151.8400 C   0  0  0  0  0  3  0  0  0  0  0  0
  144.8360  140.0220  152.8700 C   0  0  0  0  0  3  0  0  0  0  0  0
  144.0900  138.7150  152.7990 C   0  0  0  0  0  3  0  0  0  0  0  0
  144.4850  137.7950  153.9550 C   0  0  0  0  0  1  0  0  0  0  0  0
  142.5810  138.9530  152.8120 C   0  0  0  0  0  1  0  0  0  0  0  0
  144.5560  136.3240  148.8220 O   0  0  0  0  0  0  0  0  0  0  0  0
  143.5340  135.5080  149.4000 C   0  0  0  0  0  2  0  0  0  0  0  0
  142.4840  136.3660  150.0970 C   0  0  0  0  0  2  0  0  0  0  0  0
  141.1690  136.3770  149.3110 C   0  0  0  0  0  2  0  0  0  0  0  0
  141.2010  137.4520  148.2360 C   0  0  0  0  0  2  0  0  0  0  0  0
  142.2470  138.4260  148.4730 N   0  0  0  0  0  0  0  0  0  0  0  0
  142.0600  139.5900  149.1240 C   0  0  0  0  0  0  0  0  0  0  0  0
  140.9670  140.0090  149.6600 N   0  0  0  0  0  0  0  0  0  0  0  0
  143.1560  140.3640  149.2010 N   0  0  0  0  0  4  0  0  0  0  0  0
  143.1490  138.2250  148.1370 H   0  0  0  0  0  0  0  0  0  0  0  0
  140.1540  139.4560  149.6140 H   0  0  0  0  0  0  0  0  0  0  0  0
  140.9450  140.8820  150.1150 H   0  0  0  0  0  0  0  0  0  0  0  0
  144.0010  140.0600  148.7980 H   0  0  0  0  0  0  0  0  0  0  0  0
  143.1140  141.2340  149.6610 H   0  0  0  0  0  0  0  0  0  0  0  0
  1  6  2  0  0  0  0
  1  2  1  0  0  0  0
  2  3  2  0  0  0  0
  3  4  1  0  0  0  0
  3  9  1  0  0  0  0
  5  4  2  0  0  0  0
  6  5  1  0  0  0  0
  7  8  1  0  0  0  0
  8  1  1  0  0  0  0
  9 10  1  0  0  0  0
 10 11  1  0  0  0  0
 11 14  1  0  0  0  0
 11 12  2  0  0  0  0
 13 10  1  0  0  0  0
 15 16  1  0  0  0  0
 15 14  1  0  0  0  0
 17 16  1  0  0  0  0
 18 17  1  0  0  0  0
 18 19  2  0  0  0  0
 20 22  1  0  0  0  0
 20 19  1  0  0  0  0
 20 21  1  0  0  0  0
 23 24  1  0  0  0  0
 23  6  1  0  0  0  0
 24 25  1  0  0  0  0
 26 25  1  0  0  0  0
 27 28  1  0  0  0  0
 27 26  1  0  0  0  0
 28 29  1  0  0  0  0
 29 31  2  0  0  0  0
 29 30  1  0  0  0  0
 30 34  1  0  0  0  0
 31 36  1  0  0  0  0
 32 28  1  0  0  0  0
 33 30  1  0  0  0  0
 35 31  1  0  0  0  0
M  END
>  <MODEL>
3

>  <REMARK>
 VINA RESULT:    -6.811      4.994      8.750
 INTER + INTRA:         -14.472
 INTER:                 -10.933
 INTRA:                  -3.539
 UNBOUND:                -1.688
  Name = CHEMBL5268379
  18 active torsions:
  status: ('A' for Active; 'I' for Inactive)
    1  A    between atoms: C_1  and  O_2
    2  A    between atoms: O_2  and  C_3
    3  A    between atoms: C_5  and  C_6
    4  A    between atoms: C_6  and  N_7
    5  A    between atoms: C_8  and  C_10
    6  A    between atoms: C_10  and  C_11
    7  A    between atoms: C_11  and  C_12
    8  A    between atoms: C_12  and  C_13
    9  A    between atoms: C_13  and  C_14
   10  A    between atoms: C_15  and  C_16
   11  A    between atoms: C_16  and  C_17
   12  A    between atoms: C_16  and  C_18
   13  A    between atoms: C_21  and  O_22
   14  A    between atoms: O_22  and  C_23
   15  A    between atoms: C_23  and  C_24
   16  A    between atoms: C_24  and  C_25
   17  A    between atoms: C_25  and  C_26
   18  A    between atoms: C_26  and  N_27
                            x       y       z     vdW  Elec       q    Type
                         _______ _______ _______ _____ _____    ______ ____

>  <TORSDO>
F 15

>  <SCORE>
-6.811

>  <RMSD_LB>
4.994

>  <RMSD_UB>
8.750

$$$$
CHEMBL5268379
 OpenBabel10172500573D

 36 36  0  0  0  0  0  0  0  0999 V2000
  137.0680  136.7550  151.2910 C   0  0  0  0  0  0  0  0  0  0  0  0
  137.8980  137.4390  152.1940 C   0  0  0  0  0  3  0  0  0  0  0  0
  137.7450  137.3450  153.5770 C   0  0  0  0  0  0  0  0  0  0  0  0
  136.7330  136.5200  154.0530 C   0  0  0  0  0  3  0  0  0  0  0  0
  135.9230  135.7890  153.1730 C   0  0  0  0  0  3  0  0  0  0  0  0
  136.1090  135.8620  151.7860 C   0  0  0  0  0  0  0  0  0  0  0  0
  137.7730  138.2490  149.6220 C   0  0  0  0  0  1  0  0  0  0  0  0
  137.1880  136.9870  149.9410 O   0  0  0  0  0  0  0  0  0  0  0  0
  138.6100  138.1550  154.5110 C   0  0  0  0  0  2  0  0  0  0  0  0
  139.8620  138.5640  153.9200 N   0  0  0  0  0  0  0  0  0  0  0  0
  141.0650  138.2490  154.5140 C   0  0  0  0  0  0  0  0  0  0  0  0
  141.1700  137.6550  155.5650 O   0  0  0  0  0  0  0  0  0  0  0  0
  139.8570  139.0750  153.0800 H   0  0  0  0  0  0  0  0  0  0  0  0
  142.2500  138.7360  153.6880 C   0  0  0  0  0  2  0  0  0  0  0  0
  143.1210  137.5720  153.2380 C   0  0  0  0  0  2  0  0  0  0  0  0
  144.5050  137.6040  153.8860 C   0  0  0  0  0  2  0  0  0  0  0  0
  145.5440  138.0820  152.8740 C   0  0  0  0  0  2  0  0  0  0  0  0
  145.7730  139.5580  152.9810 C   0  0  0  0  0  3  0  0  0  0  0  0
  146.7900  140.0880  153.6800 C   0  0  0  0  0  3  0  0  0  0  0  0
  147.0100  141.5720  153.8210 C   0  0  0  0  0  3  0  0  0  0  0  0
  148.4090  141.8690  154.3650 C   0  0  0  0  0  1  0  0  0  0  0  0
  146.8080  142.2790  152.4820 C   0  0  0  0  0  1  0  0  0  0  0  0
  135.2610  135.0650  151.0550 O   0  0  0  0  0  0  0  0  0  0  0  0
  134.6440  134.0040  151.7890 C   0  0  0  0  0  2  0  0  0  0  0  0
  133.6970  133.2080  150.8960 C   0  0  0  0  0  2  0  0  0  0  0  0
  132.5410  134.0810  150.4000 C   0  0  0  0  0  2  0  0  0  0  0  0
  132.6320  134.2800  148.8950 C   0  0  0  0  0  2  0  0  0  0  0  0
  133.5860  135.3110  148.5400 N   0  0  0  0  0  0  0  0  0  0  0  0
  133.4090  136.6220  148.7910 C   0  0  0  0  0  0  0  0  0  0  0  0
  132.4130  137.1640  149.3990 N   0  0  0  0  0  0  0  0  0  0  0  0
  134.4020  137.4100  148.3450 N   0  0  0  0  0  4  0  0  0  0  0  0
  134.4150  135.0350  148.0870 H   0  0  0  0  0  0  0  0  0  0  0  0
  131.6760  136.6030  149.7330 H   0  0  0  0  0  0  0  0  0  0  0  0
  132.3880  138.1400  149.5290 H   0  0  0  0  0  0  0  0  0  0  0  0
  135.1730  137.0140  147.8780 H   0  0  0  0  0  0  0  0  0  0  0  0
  134.3580  138.3840  148.4850 H   0  0  0  0  0  0  0  0  0  0  0  0
  1  6  2  0  0  0  0
  1  2  1  0  0  0  0
  2  3  2  0  0  0  0
  3  4  1  0  0  0  0
  3  9  1  0  0  0  0
  5  4  2  0  0  0  0
  6  5  1  0  0  0  0
  7  8  1  0  0  0  0
  8  1  1  0  0  0  0
 10  9  1  0  0  0  0
 10 11  1  0  0  0  0
 11 12  2  0  0  0  0
 13 10  1  0  0  0  0
 14 11  1  0  0  0  0
 15 14  1  0  0  0  0
 15 16  1  0  0  0  0
 17 18  1  0  0  0  0
 17 16  1  0  0  0  0
 18 19  2  0  0  0  0
 19 20  1  0  0  0  0
 20 21  1  0  0  0  0
 22 20  1  0  0  0  0
 23  6  1  0  0  0  0
 23 24  1  0  0  0  0
 25 24  1  0  0  0  0
 26 25  1  0  0  0  0
 27 26  1  0  0  0  0
 28 29  1  0  0  0  0
 28 27  1  0  0  0  0
 29 30  1  0  0  0  0
 30 34  1  0  0  0  0
 30 33  1  0  0  0  0
 31 36  1  0  0  0  0
 31 29  2  0  0  0  0
 32 28  1  0  0  0  0
 35 31  1  0  0  0  0
M  END
>  <MODEL>
4

>  <REMARK>
 VINA RESULT:    -6.746      3.664     10.629
 INTER + INTRA:         -14.351
 INTER:                 -12.789
 INTRA:                  -1.561
 UNBOUND:                -1.688
  Name = CHEMBL5268379
  18 active torsions:
  status: ('A' for Active; 'I' for Inactive)
    1  A    between atoms: C_1  and  O_2
    2  A    between atoms: O_2  and  C_3
    3  A    between atoms: C_5  and  C_6
    4  A    between atoms: C_6  and  N_7
    5  A    between atoms: C_8  and  C_10
    6  A    between atoms: C_10  and  C_11
    7  A    between atoms: C_11  and  C_12
    8  A    between atoms: C_12  and  C_13
    9  A    between atoms: C_13  and  C_14
   10  A    between atoms: C_15  and  C_16
   11  A    between atoms: C_16  and  C_17
   12  A    between atoms: C_16  and  C_18
   13  A    between atoms: C_21  and  O_22
   14  A    between atoms: O_22  and  C_23
   15  A    between atoms: C_23  and  C_24
   16  A    between atoms: C_24  and  C_25
   17  A    between atoms: C_25  and  C_26
   18  A    between atoms: C_26  and  N_27
                            x       y       z     vdW  Elec       q    Type
                         _______ _______ _______ _____ _____    ______ ____

>  <TORSDO>
F 15

>  <SCORE>
-6.746

>  <RMSD_LB>
3.664

>  <RMSD_UB>
10.629

$$$$
CHEMBL5268379
 OpenBabel10172500573D

 36 36  0  0  0  0  0  0  0  0999 V2000
  136.7260  137.1300  148.9920 C   0  0  0  0  0  0  0  0  0  0  0  0
  137.6940  138.0360  149.4570 C   0  0  0  0  0  3  0  0  0  0  0  0
  138.1820  138.0130  150.7630 C   0  0  0  0  0  0  0  0  0  0  0  0
  137.6850  137.0340  151.6140 C   0  0  0  0  0  3  0  0  0  0  0  0
  136.7540  136.0880  151.1610 C   0  0  0  0  0  3  0  0  0  0  0  0
  136.2980  136.0960  149.8350 C   0  0  0  0  0  0  0  0  0  0  0  0
  136.6040  138.4800  147.0750 C   0  0  0  0  0  1  0  0  0  0  0  0
  136.1940  137.2820  147.7340 O   0  0  0  0  0  0  0  0  0  0  0  0
  139.1660  139.0520  151.2420 C   0  0  0  0  0  2  0  0  0  0  0  0
  140.2530  138.4960  152.0140 N   0  0  0  0  0  0  0  0  0  0  0  0
  140.3350  138.6990  153.3740 C   0  0  0  0  0  0  0  0  0  0  0  0
  139.5510  139.3690  154.0110 O   0  0  0  0  0  0  0  0  0  0  0  0
  140.9450  137.9630  151.5620 H   0  0  0  0  0  0  0  0  0  0  0  0
  141.5320  137.9770  153.9840 C   0  0  0  0  0  2  0  0  0  0  0  0
  142.5680  138.9680  154.4930 C   0  0  0  0  0  2  0  0  0  0  0  0
  143.8930  138.8530  153.7400 C   0  0  0  0  0  2  0  0  0  0  0  0
  143.8460  139.6990  152.4700 C   0  0  0  0  0  2  0  0  0  0  0  0
  145.1260  140.4480  152.2630 C   0  0  0  0  0  3  0  0  0  0  0  0
  145.1880  141.6190  151.6080 C   0  0  0  0  0  3  0  0  0  0  0  0
  146.4740  142.3650  151.3660 C   0  0  0  0  0  3  0  0  0  0  0  0
  147.6770  141.5560  151.8560 C   0  0  0  0  0  1  0  0  0  0  0  0
  146.6350  142.6980  149.8840 C   0  0  0  0  0  1  0  0  0  0  0  0
  135.4140  135.0890  149.5320 O   0  0  0  0  0  0  0  0  0  0  0  0
  134.9650  134.3190  150.6500 C   0  0  0  0  0  2  0  0  0  0  0  0
  133.9780  133.2440  150.2050 C   0  0  0  0  0  2  0  0  0  0  0  0
  133.7900  133.2620  148.6850 C   0  0  0  0  0  2  0  0  0  0  0  0
  132.5360  134.0370  148.3130 C   0  0  0  0  0  2  0  0  0  0  0  0
  132.8430  135.2430  147.5700 N   0  0  0  0  0  0  0  0  0  0  0  0
  132.8660  136.4760  148.1110 C   0  0  0  0  0  0  0  0  0  0  0  0
  132.6600  136.7830  149.3430 N   0  0  0  0  0  0  0  0  0  0  0  0
  133.1380  137.4590  147.2360 N   0  0  0  0  0  4  0  0  0  0  0  0
  133.0470  135.1550  146.6120 H   0  0  0  0  0  0  0  0  0  0  0  0
  132.4580  136.0770  149.9990 H   0  0  0  0  0  0  0  0  0  0  0  0
  132.7020  137.7250  149.6300 H   0  0  0  0  0  0  0  0  0  0  0  0
  133.3000  137.2440  146.2890 H   0  0  0  0  0  0  0  0  0  0  0  0
  133.1770  138.3950  147.5420 H   0  0  0  0  0  0  0  0  0  0  0  0
  1  2  2  0  0  0  0
  1  6  1  0  0  0  0
  2  3  1  0  0  0  0
  3  9  1  0  0  0  0
  3  4  2  0  0  0  0
  5  4  1  0  0  0  0
  6  5  2  0  0  0  0
  7  8  1  0  0  0  0
  8  1  1  0  0  0  0
  9 10  1  0  0  0  0
 10 11  1  0  0  0  0
 11 14  1  0  0  0  0
 11 12  2  0  0  0  0
 13 10  1  0  0  0  0
 14 15  1  0  0  0  0
 16 15  1  0  0  0  0
 17 16  1  0  0  0  0
 18 17  1  0  0  0  0
 19 18  2  0  0  0  0
 20 19  1  0  0  0  0
 20 21  1  0  0  0  0
 22 20  1  0  0  0  0
 23  6  1  0  0  0  0
 23 24  1  0  0  0  0
 25 24  1  0  0  0  0
 26 25  1  0  0  0  0
 27 26  1  0  0  0  0
 28 29  1  0  0  0  0
 28 27  1  0  0  0  0
 29 30  1  0  0  0  0
 30 34  1  0  0  0  0
 30 33  1  0  0  0  0
 31 36  1  0  0  0  0
 31 29  2  0  0  0  0
 32 28  1  0  0  0  0
 35 31  1  0  0  0  0
M  END
>  <MODEL>
5

>  <REMARK>
 VINA RESULT:    -6.698      4.281     10.839
 INTER + INTRA:         -14.260
 INTER:                 -12.332
 INTRA:                  -1.928
 UNBOUND:                -1.688
  Name = CHEMBL5268379
  18 active torsions:
  status: ('A' for Active; 'I' for Inactive)
    1  A    between atoms: C_1  and  O_2
    2  A    between atoms: O_2  and  C_3
    3  A    between atoms: C_5  and  C_6
    4  A    between atoms: C_6  and  N_7
    5  A    between atoms: C_8  and  C_10
    6  A    between atoms: C_10  and  C_11
    7  A    between atoms: C_11  and  C_12
    8  A    between atoms: C_12  and  C_13
    9  A    between atoms: C_13  and  C_14
   10  A    between atoms: C_15  and  C_16
   11  A    between atoms: C_16  and  C_17
   12  A    between atoms: C_16  and  C_18
   13  A    between atoms: C_21  and  O_22
   14  A    between atoms: O_22  and  C_23
   15  A    between atoms: C_23  and  C_24
   16  A    between atoms: C_24  and  C_25
   17  A    between atoms: C_25  and  C_26
   18  A    between atoms: C_26  and  N_27
                            x       y       z     vdW  Elec       q    Type
                         _______ _______ _______ _____ _____    ______ ____

>  <TORSDO>
F 15

>  <SCORE>
-6.698

>  <RMSD_LB>
4.281

>  <RMSD_UB>
10.839

$$$$
CHEMBL5268379
 OpenBabel10172500573D

 36 36  0  0  0  0  0  0  0  0999 V2000
  143.2380  139.5370  151.9990 C   0  0  0  0  0  0  0  0  0  0  0  0
  142.1800  138.7730  151.4800 C   0  0  0  0  0  3  0  0  0  0  0  0
  141.7900  138.8350  150.1430 C   0  0  0  0  0  0  0  0  0  0  0  0
  142.5050  139.6840  149.3080 C   0  0  0  0  0  3  0  0  0  0  0  0
  143.5960  140.4210  149.7910 C   0  0  0  0  0  3  0  0  0  0  0  0
  144.0040  140.3230  151.1280 C   0  0  0  0  0  0  0  0  0  0  0  0
  143.7520  138.2250  153.8780 C   0  0  0  0  0  1  0  0  0  0  0  0
  143.4930  139.5260  153.3500 O   0  0  0  0  0  0  0  0  0  0  0  0
  140.6000  138.0530  149.6440 C   0  0  0  0  0  2  0  0  0  0  0  0
  139.5070  138.0110  150.5870 N   0  0  0  0  0  0  0  0  0  0  0  0
  138.5530  137.0180  150.5250 C   0  0  0  0  0  0  0  0  0  0  0  0
  138.5290  136.1480  149.6810 O   0  0  0  0  0  0  0  0  0  0  0  0
  139.4430  138.7000  151.2850 H   0  0  0  0  0  0  0  0  0  0  0  0
  137.5310  137.1440  151.6490 C   0  0  0  0  0  2  0  0  0  0  0  0
  136.3460  136.2160  151.4180 C   0  0  0  0  0  2  0  0  0  0  0  0
  136.1950  135.1870  152.5380 C   0  0  0  0  0  2  0  0  0  0  0  0
  134.8590  134.4600  152.4000 C   0  0  0  0  0  2  0  0  0  0  0  0
  134.5200  134.2060  150.9640 C   0  0  0  0  0  3  0  0  0  0  0  0
  133.5060  133.4110  150.5850 C   0  0  0  0  0  3  0  0  0  0  0  0
  133.1760  133.1220  149.1430 C   0  0  0  0  0  3  0  0  0  0  0  0
  133.0030  134.4190  148.3500 C   0  0  0  0  0  1  0  0  0  0  0  0
  134.2620  132.2580  148.5030 C   0  0  0  0  0  1  0  0  0  0  0  0
  145.1060  141.0790  151.4440 O   0  0  0  0  0  0  0  0  0  0  0  0
  145.9190  141.4610  150.3310 C   0  0  0  0  0  2  0  0  0  0  0  0
  147.0970  142.3160  150.7880 C   0  0  0  0  0  2  0  0  0  0  0  0
  148.1890  141.4520  151.4280 C   0  0  0  0  0  2  0  0  0  0  0  0
  148.4060  141.8560  152.8780 C   0  0  0  0  0  2  0  0  0  0  0  0
  148.1010  140.7760  153.7940 N   0  0  0  0  0  0  0  0  0  0  0  0
  146.9080  140.6130  154.3970 C   0  0  0  0  0  0  0  0  0  0  0  0
  145.8580  141.3420  154.2440 N   0  0  0  0  0  4  0  0  0  0  0  0
  146.8510  139.5660  155.2370 N   0  0  0  0  0  0  0  0  0  0  0  0
  148.8090  140.1220  153.9880 H   0  0  0  0  0  0  0  0  0  0  0  0
  145.8810  142.1140  153.6330 H   0  0  0  0  0  0  0  0  0  0  0  0
  145.0340  141.1290  154.7390 H   0  0  0  0  0  0  0  0  0  0  0  0
  147.6430  138.9960  155.3670 H   0  0  0  0  0  0  0  0  0  0  0  0
  146.0170  139.3680  155.7230 H   0  0  0  0  0  0  0  0  0  0  0  0
  1  8  1  0  0  0  0
  2  1  1  0  0  0  0
  3  2  2  0  0  0  0
  4  5  2  0  0  0  0
  4  3  1  0  0  0  0
  5  6  1  0  0  0  0
  6 23  1  0  0  0  0
  6  1  2  0  0  0  0
  8  7  1  0  0  0  0
  9  3  1  0  0  0  0
  9 10  1  0  0  0  0
 10 13  1  0  0  0  0
 11 10  1  0  0  0  0
 11 14  1  0  0  0  0
 12 11  2  0  0  0  0
 15 14  1  0  0  0  0
 15 16  1  0  0  0  0
 17 16  1  0  0  0  0
 18 17  1  0  0  0  0
 19 18  2  0  0  0  0
 20 19  1  0  0  0  0
 21 20  1  0  0  0  0
 22 20  1  0  0  0  0
 24 25  1  0  0  0  0
 24 23  1  0  0  0  0
 25 26  1  0  0  0  0
 26 27  1  0  0  0  0
 27 28  1  0  0  0  0
 28 32  1  0  0  0  0
 28 29  1  0  0  0  0
 29 31  1  0  0  0  0
 30 29  2  0  0  0  0
 30 34  1  0  0  0  0
 31 35  1  0  0  0  0
 31 36  1  0  0  0  0
 33 30  1  0  0  0  0
M  END
>  <MODEL>
6

>  <REMARK>
 VINA RESULT:    -6.687      2.811      3.817
 INTER + INTRA:         -14.240
 INTER:                 -12.363
 INTRA:                  -1.876
 UNBOUND:                -1.688
  Name = CHEMBL5268379
  18 active torsions:
  status: ('A' for Active; 'I' for Inactive)
    1  A    between atoms: C_1  and  O_2
    2  A    between atoms: O_2  and  C_3
    3  A    between atoms: C_5  and  C_6
    4  A    between atoms: C_6  and  N_7
    5  A    between atoms: C_8  and  C_10
    6  A    between atoms: C_10  and  C_11
    7  A    between atoms: C_11  and  C_12
    8  A    between atoms: C_12  and  C_13
    9  A    between atoms: C_13  and  C_14
   10  A    between atoms: C_15  and  C_16
   11  A    between atoms: C_16  and  C_17
   12  A    between atoms: C_16  and  C_18
   13  A    between atoms: C_21  and  O_22
   14  A    between atoms: O_22  and  C_23
   15  A    between atoms: C_23  and  C_24
   16  A    between atoms: C_24  and  C_25
   17  A    between atoms: C_25  and  C_26
   18  A    between atoms: C_26  and  N_27
                            x       y       z     vdW  Elec       q    Type
                         _______ _______ _______ _____ _____    ______ ____

>  <TORSDO>
F 15

>  <SCORE>
-6.687

>  <RMSD_LB>
2.811

>  <RMSD_UB>
3.817

$$$$
CHEMBL5268379
 OpenBabel10172500573D

 36 36  0  0  0  0  0  0  0  0999 V2000
  138.2060  137.2250  151.6300 C   0  0  0  0  0  0  0  0  0  0  0  0
  139.5650  137.4580  151.3610 C   0  0  0  0  0  3  0  0  0  0  0  0
  140.4680  137.8650  152.3420 C   0  0  0  0  0  0  0  0  0  0  0  0
  139.9810  138.0240  153.6330 C   0  0  0  0  0  3  0  0  0  0  0  0
  138.6390  137.7510  153.9370 C   0  0  0  0  0  3  0  0  0  0  0  0
  137.7480  137.3070  152.9510 C   0  0  0  0  0  0  0  0  0  0  0  0
  137.4070  137.8850  149.5220 C   0  0  0  0  0  1  0  0  0  0  0  0
  137.3410  136.9480  150.5980 O   0  0  0  0  0  0  0  0  0  0  0  0
  141.9040  138.1760  151.9950 C   0  0  0  0  0  2  0  0  0  0  0  0
  142.8440  137.7160  152.9890 N   0  0  0  0  0  0  0  0  0  0  0  0
  144.0780  137.2200  152.6250 C   0  0  0  0  0  0  0  0  0  0  0  0
  144.4500  137.0980  151.4780 O   0  0  0  0  0  0  0  0  0  0  0  0
  142.6020  137.7570  153.9420 H   0  0  0  0  0  0  0  0  0  0  0  0
  144.9190  136.8460  153.8400 C   0  0  0  0  0  2  0  0  0  0  0  0
  146.3970  136.7850  153.4850 C   0  0  0  0  0  2  0  0  0  0  0  0
  147.2710  137.4650  154.5390 C   0  0  0  0  0  2  0  0  0  0  0  0
  146.5260  138.6520  155.1470 C   0  0  0  0  0  2  0  0  0  0  0  0
  146.5700  139.8460  154.2440 C   0  0  0  0  0  3  0  0  0  0  0  0
  147.6300  140.6680  154.1750 C   0  0  0  0  0  3  0  0  0  0  0  0
  147.6720  141.8910  153.2950 C   0  0  0  0  0  3  0  0  0  0  0  0
  148.6500  141.6970  152.1350 C   0  0  0  0  0  1  0  0  0  0  0  0
  146.2790  142.2180  152.7580 C   0  0  0  0  0  1  0  0  0  0  0  0
  136.4770  137.0510  153.4070 O   0  0  0  0  0  0  0  0  0  0  0  0
  136.4000  136.1510  154.5150 C   0  0  0  0  0  2  0  0  0  0  0  0
  134.9500  135.9330  154.9360 C   0  0  0  0  0  2  0  0  0  0  0  0
  134.6020  134.4410  154.9680 C   0  0  0  0  0  2  0  0  0  0  0  0
  134.5230  133.8830  153.5560 C   0  0  0  0  0  2  0  0  0  0  0  0
  134.1030  134.8850  152.5980 N   0  0  0  0  0  0  0  0  0  0  0  0
  134.6800  135.0670  151.3950 C   0  0  0  0  0  0  0  0  0  0  0  0
  135.6470  134.3850  150.8910 N   0  0  0  0  0  0  0  0  0  0  0  0
  134.1570  136.0770  150.6780 N   0  0  0  0  0  4  0  0  0  0  0  0
  133.3490  135.4690  152.8420 H   0  0  0  0  0  0  0  0  0  0  0  0
  136.0430  133.6420  151.4020 H   0  0  0  0  0  0  0  0  0  0  0  0
  135.9920  134.6070  149.9960 H   0  0  0  0  0  0  0  0  0  0  0  0
  133.4160  136.6100  151.0460 H   0  0  0  0  0  0  0  0  0  0  0  0
  134.5160  136.2830  149.7840 H   0  0  0  0  0  0  0  0  0  0  0  0
  1  6  1  0  0  0  0
  2  1  2  0  0  0  0
  2  3  1  0  0  0  0
  3  4  2  0  0  0  0
  4  5  1  0  0  0  0
  6 23  1  0  0  0  0
  6  5  2  0  0  0  0
  7  8  1  0  0  0  0
  8  1  1  0  0  0  0
  9  3  1  0  0  0  0
  9 10  1  0  0  0  0
 10 13  1  0  0  0  0
 11 10  1  0  0  0  0
 11 14  1  0  0  0  0
 12 11  2  0  0  0  0
 15 14  1  0  0  0  0
 15 16  1  0  0  0  0
 16 17  1  0  0  0  0
 18 17  1  0  0  0  0
 19 18  2  0  0  0  0
 20 19  1  0  0  0  0
 21 20  1  0  0  0  0
 22 20  1  0  0  0  0
 23 24  1  0  0  0  0
 24 25  1  0  0  0  0
 25 26  1  0  0  0  0
 27 26  1  0  0  0  0
 28 32  1  0  0  0  0
 28 27  1  0  0  0  0
 29 28  1  0  0  0  0
 30 29  1  0  0  0  0
 30 33  1  0  0  0  0
 31 35  1  0  0  0  0
 31 29  2  0  0  0  0
 34 30  1  0  0  0  0
 36 31  1  0  0  0  0
M  END
>  <MODEL>
7

>  <REMARK>
 VINA RESULT:    -6.662      2.828     10.300
 INTER + INTRA:         -14.192
 INTER:                 -12.546
 INTRA:                  -1.646
 UNBOUND:                -1.688
  Name = CHEMBL5268379
  18 active torsions:
  status: ('A' for Active; 'I' for Inactive)
    1  A    between atoms: C_1  and  O_2
    2  A    between atoms: O_2  and  C_3
    3  A    between atoms: C_5  and  C_6
    4  A    between atoms: C_6  and  N_7
    5  A    between atoms: C_8  and  C_10
    6  A    between atoms: C_10  and  C_11
    7  A    between atoms: C_11  and  C_12
    8  A    between atoms: C_12  and  C_13
    9  A    between atoms: C_13  and  C_14
   10  A    between atoms: C_15  and  C_16
   11  A    between atoms: C_16  and  C_17
   12  A    between atoms: C_16  and  C_18
   13  A    between atoms: C_21  and  O_22
   14  A    between atoms: O_22  and  C_23
   15  A    between atoms: C_23  and  C_24
   16  A    between atoms: C_24  and  C_25
   17  A    between atoms: C_25  and  C_26
   18  A    between atoms: C_26  and  N_27
                            x       y       z     vdW  Elec       q    Type
                         _______ _______ _______ _____ _____    ______ ____

>  <TORSDO>
F 15

>  <SCORE>
-6.662

>  <RMSD_LB>
2.828

>  <RMSD_UB>
10.300

$$$$
CHEMBL5268379
 OpenBabel10172500573D

 36 36  0  0  0  0  0  0  0  0999 V2000
  138.1430  137.7710  153.7180 C   0  0  0  0  0  0  0  0  0  0  0  0
  139.3700  138.2410  154.2140 C   0  0  0  0  0  3  0  0  0  0  0  0
  140.5240  138.3040  153.4350 C   0  0  0  0  0  0  0  0  0  0  0  0
  140.4250  137.8930  152.1120 C   0  0  0  0  0  3  0  0  0  0  0  0
  139.2010  137.4650  151.5790 C   0  0  0  0  0  3  0  0  0  0  0  0
  138.0370  137.4410  152.3610 C   0  0  0  0  0  0  0  0  0  0  0  0
  137.3180  138.0860  155.8940 C   0  0  0  0  0  1  0  0  0  0  0  0
  137.0750  137.6150  154.5680 O   0  0  0  0  0  0  0  0  0  0  0  0
  141.8390  138.7460  154.0290 C   0  0  0  0  0  2  0  0  0  0  0  0
  142.9290  137.8450  153.7390 N   0  0  0  0  0  0  0  0  0  0  0  0
  143.8530  138.1390  152.7590 C   0  0  0  0  0  0  0  0  0  0  0  0
  143.8100  139.1260  152.0570 O   0  0  0  0  0  0  0  0  0  0  0  0
  143.0150  137.0080  154.2490 H   0  0  0  0  0  0  0  0  0  0  0  0
  144.9390  137.0730  152.6660 C   0  0  0  0  0  2  0  0  0  0  0  0
  145.6280  136.8730  154.0080 C   0  0  0  0  0  2  0  0  0  0  0  0
  147.1420  137.0610  153.9120 C   0  0  0  0  0  2  0  0  0  0  0  0
  147.5050  138.5200  154.1790 C   0  0  0  0  0  2  0  0  0  0  0  0
  147.6870  139.2810  152.9020 C   0  0  0  0  0  3  0  0  0  0  0  0
  147.9910  140.5890  152.8710 C   0  0  0  0  0  3  0  0  0  0  0  0
  148.1450  141.3710  151.5920 C   0  0  0  0  0  3  0  0  0  0  0  0
  146.8770  142.1690  151.2820 C   0  0  0  0  0  1  0  0  0  0  0  0
  149.3480  142.3090  151.6740 C   0  0  0  0  0  1  0  0  0  0  0  0
  136.9110  137.0290  151.6910 O   0  0  0  0  0  0  0  0  0  0  0  0
  137.1520  136.2140  150.5410 C   0  0  0  0  0  2  0  0  0  0  0  0
  135.8500  135.9210  149.8020 C   0  0  0  0  0  2  0  0  0  0  0  0
  135.0530  134.8170  150.5040 C   0  0  0  0  0  2  0  0  0  0  0  0
  133.8680  135.4090  151.2500 C   0  0  0  0  0  2  0  0  0  0  0  0
  134.2410  135.9010  152.5610 N   0  0  0  0  0  0  0  0  0  0  0  0
  134.2900  135.1370  153.6680 C   0  0  0  0  0  0  0  0  0  0  0  0
  134.0560  133.8740  153.7460 N   0  0  0  0  0  4  0  0  0  0  0  0
  134.6260  135.8030  154.7860 N   0  0  0  0  0  0  0  0  0  0  0  0
  134.4730  136.8540  152.6460 H   0  0  0  0  0  0  0  0  0  0  0  0
  133.8080  133.3690  152.9380 H   0  0  0  0  0  0  0  0  0  0  0  0
  134.1220  133.4130  154.6140 H   0  0  0  0  0  0  0  0  0  0  0  0
  134.8100  136.7690  154.7470 H   0  0  0  0  0  0  0  0  0  0  0  0
  134.6880  135.3240  155.6450 H   0  0  0  0  0  0  0  0  0  0  0  0
  1  2  1  0  0  0  0
  1  8  1  0  0  0  0
  3  9  1  0  0  0  0
  3  2  2  0  0  0  0
  4  3  1  0  0  0  0
  5  4  2  0  0  0  0
  5  6  1  0  0  0  0
  6  1  2  0  0  0  0
  8  7  1  0  0  0  0
 10  9  1  0  0  0  0
 10 13  1  0  0  0  0
 11 10  1  0  0  0  0
 12 11  2  0  0  0  0
 14 11  1  0  0  0  0
 14 15  1  0  0  0  0
 16 15  1  0  0  0  0
 16 17  1  0  0  0  0
 18 17  1  0  0  0  0
 19 18  2  0  0  0  0
 20 22  1  0  0  0  0
 20 19  1  0  0  0  0
 21 20  1  0  0  0  0
 23  6  1  0  0  0  0
 24 23  1  0  0  0  0
 25 26  1  0  0  0  0
 25 24  1  0  0  0  0
 26 27  1  0  0  0  0
 27 28  1  0  0  0  0
 28 32  1  0  0  0  0
 28 29  1  0  0  0  0
 29 30  2  0  0  0  0
 29 31  1  0  0  0  0
 30 34  1  0  0  0  0
 31 36  1  0  0  0  0
 33 30  1  0  0  0  0
 35 31  1  0  0  0  0
M  END
>  <MODEL>
8

>  <REMARK>
 VINA RESULT:    -6.588      2.525     10.075
 INTER + INTRA:         -14.052
 INTER:                 -12.364
 INTRA:                  -1.688
 UNBOUND:                -1.688
  Name = CHEMBL5268379
  18 active torsions:
  status: ('A' for Active; 'I' for Inactive)
    1  A    between atoms: C_1  and  O_2
    2  A    between atoms: O_2  and  C_3
    3  A    between atoms: C_5  and  C_6
    4  A    between atoms: C_6  and  N_7
    5  A    between atoms: C_8  and  C_10
    6  A    between atoms: C_10  and  C_11
    7  A    between atoms: C_11  and  C_12
    8  A    between atoms: C_12  and  C_13
    9  A    between atoms: C_13  and  C_14
   10  A    between atoms: C_15  and  C_16
   11  A    between atoms: C_16  and  C_17
   12  A    between atoms: C_16  and  C_18
   13  A    between atoms: C_21  and  O_22
   14  A    between atoms: O_22  and  C_23
   15  A    between atoms: C_23  and  C_24
   16  A    between atoms: C_24  and  C_25
   17  A    between atoms: C_25  and  C_26
   18  A    between atoms: C_26  and  N_27
                            x       y       z     vdW  Elec       q    Type
                         _______ _______ _______ _____ _____    ______ ____

>  <TORSDO>
F 15

>  <SCORE>
-6.588

>  <RMSD_LB>
2.525

>  <RMSD_UB>
10.075

$$$$
CHEMBL5268379
 OpenBabel10172500573D

 36 36  0  0  0  0  0  0  0  0999 V2000
  146.0710  138.0950  149.5140 C   0  0  0  0  0  0  0  0  0  0  0  0
  147.0150  138.3370  150.5260 C   0  0  0  0  0  3  0  0  0  0  0  0
  147.2460  137.4440  151.5710 C   0  0  0  0  0  0  0  0  0  0  0  0
  146.5100  136.2660  151.5790 C   0  0  0  0  0  3  0  0  0  0  0  0
  145.5970  135.9780  150.5550 C   0  0  0  0  0  3  0  0  0  0  0  0
  145.3990  136.8660  149.4880 C   0  0  0  0  0  0  0  0  0  0  0  0
  144.6560  139.8640  148.8950 C   0  0  0  0  0  1  0  0  0  0  0  0
  145.8000  139.0690  148.5830 O   0  0  0  0  0  0  0  0  0  0  0  0
  148.2160  137.7770  152.6780 C   0  0  0  0  0  2  0  0  0  0  0  0
  148.3690  139.1960  152.8960 N   0  0  0  0  0  0  0  0  0  0  0  0
  148.1970  139.7460  154.1480 C   0  0  0  0  0  0  0  0  0  0  0  0
  147.8780  139.1120  155.1320 O   0  0  0  0  0  0  0  0  0  0  0  0
  148.6000  139.7810  152.1390 H   0  0  0  0  0  0  0  0  0  0  0  0
  148.4590  141.2470  154.1490 C   0  0  0  0  0  2  0  0  0  0  0  0
  147.8130  141.9170  152.9460 C   0  0  0  0  0  2  0  0  0  0  0  0
  146.3240  142.1840  153.1650 C   0  0  0  0  0  2  0  0  0  0  0  0
  145.4970  141.3670  152.1760 C   0  0  0  0  0  2  0  0  0  0  0  0
  144.8730  140.1760  152.8370 C   0  0  0  0  0  3  0  0  0  0  0  0
  143.8050  139.5380  152.3310 C   0  0  0  0  0  3  0  0  0  0  0  0
  143.1500  138.3600  153.0050 C   0  0  0  0  0  3  0  0  0  0  0  0
  142.5090  137.4270  151.9760 C   0  0  0  0  0  1  0  0  0  0  0  0
  144.1630  137.5910  153.8520 C   0  0  0  0  0  1  0  0  0  0  0  0
  144.4980  136.4320  148.5460 O   0  0  0  0  0  0  0  0  0  0  0  0
  145.0480  135.6140  147.5110 C   0  0  0  0  0  2  0  0  0  0  0  0
  143.9690  135.2020  146.5140 C   0  0  0  0  0  2  0  0  0  0  0  0
  142.6280  135.8630  146.8480 C   0  0  0  0  0  2  0  0  0  0  0  0
  142.3210  136.9730  145.8560 C   0  0  0  0  0  2  0  0  0  0  0  0
  143.2170  138.1010  146.0080 N   0  0  0  0  0  0  0  0  0  0  0  0
  143.2820  139.1340  145.1470 C   0  0  0  0  0  0  0  0  0  0  0  0
  142.5620  139.3100  144.0950 N   0  0  0  0  0  4  0  0  0  0  0  0
  144.2090  140.0570  145.4580 N   0  0  0  0  0  0  0  0  0  0  0  0
  143.8160  138.1130  146.7890 H   0  0  0  0  0  0  0  0  0  0  0  0
  141.8780  138.6450  143.8510 H   0  0  0  0  0  0  0  0  0  0  0  0
  142.6950  140.1090  143.5340 H   0  0  0  0  0  0  0  0  0  0  0  0
  144.7690  139.9410  146.2580 H   0  0  0  0  0  0  0  0  0  0  0  0
  144.3270  140.8490  144.8840 H   0  0  0  0  0  0  0  0  0  0  0  0
  1  2  1  0  0  0  0
  2  3  2  0  0  0  0
  3  4  1  0  0  0  0
  3  9  1  0  0  0  0
  5  4  2  0  0  0  0
  6  1  2  0  0  0  0
  6  5  1  0  0  0  0
  8  7  1  0  0  0  0
  8  1  1  0  0  0  0
  9 10  1  0  0  0  0
 10 11  1  0  0  0  0
 11 14  1  0  0  0  0
 11 12  2  0  0  0  0
 13 10  1  0  0  0  0
 15 16  1  0  0  0  0
 15 14  1  0  0  0  0
 17 18  1  0  0  0  0
 17 16  1  0  0  0  0
 19 18  2  0  0  0  0
 19 20  1  0  0  0  0
 20 22  1  0  0  0  0
 21 20  1  0  0  0  0
 23  6  1  0  0  0  0
 24 23  1  0  0  0  0
 25 26  1  0  0  0  0
 25 24  1  0  0  0  0
 27 28  1  0  0  0  0
 27 26  1  0  0  0  0
 28 32  1  0  0  0  0
 29 31  1  0  0  0  0
 29 28  1  0  0  0  0
 30 29  2  0  0  0  0
 31 35  1  0  0  0  0
 33 30  1  0  0  0  0
 34 30  1  0  0  0  0
 36 31  1  0  0  0  0
M  END
>  <MODEL>
9

>  <REMARK>
 VINA RESULT:    -6.480      5.348      9.005
 INTER + INTRA:         -13.851
 INTER:                 -10.778
 INTRA:                  -3.073
 UNBOUND:                -1.688
  Name = CHEMBL5268379
  18 active torsions:
  status: ('A' for Active; 'I' for Inactive)
    1  A    between atoms: C_1  and  O_2
    2  A    between atoms: O_2  and  C_3
    3  A    between atoms: C_5  and  C_6
    4  A    between atoms: C_6  and  N_7
    5  A    between atoms: C_8  and  C_10
    6  A    between atoms: C_10  and  C_11
    7  A    between atoms: C_11  and  C_12
    8  A    between atoms: C_12  and  C_13
    9  A    between atoms: C_13  and  C_14
   10  A    between atoms: C_15  and  C_16
   11  A    between atoms: C_16  and  C_17
   12  A    between atoms: C_16  and  C_18
   13  A    between atoms: C_21  and  O_22
   14  A    between atoms: O_22  and  C_23
   15  A    between atoms: C_23  and  C_24
   16  A    between atoms: C_24  and  C_25
   17  A    between atoms: C_25  and  C_26
   18  A    between atoms: C_26  and  N_27
                            x       y       z     vdW  Elec       q    Type
                         _______ _______ _______ _____ _____    ______ ____

>  <TORSDO>
F 15

>  <SCORE>
-6.480

>  <RMSD_LB>
5.348

>  <RMSD_UB>
9.005

$$$$
