CHEMBL76571
 OpenBabel10172500413D

 24 24  0  0  0  0  0  0  0  0999 V2000
  139.4650  138.0710  152.8780 C   0  0  0  0  0  0  0  0  0  0  0  0
  140.2480  137.5220  152.1100 O   0  0  0  0  0  0  0  0  0  0  0  0
  138.1010  137.9770  152.7740 N   0  0  0  0  0  0  0  0  0  0  0  0
  137.5460  138.4690  153.4220 H   0  0  0  0  0  0  0  0  0  0  0  0
  139.9560  138.9440  154.0390 C   0  0  0  0  0  2  0  0  0  0  0  0
  139.1000  138.8570  155.1770 O   0  0  0  0  0  0  0  0  0  0  0  0
  139.5410  137.8430  156.0810 C   0  0  0  0  0  2  0  0  0  0  0  0
  138.3250  137.2660  156.7960 C   0  0  0  0  0  2  0  0  0  0  0  0
  137.7480  138.2580  157.6430 O   0  0  0  0  0  0  0  0  0  0  0  0
  137.5250  137.7410  158.9560 C   0  0  0  0  0  2  0  0  0  0  0  0
  136.2630  136.8900  158.9560 C   0  0  0  0  0  2  0  0  0  0  0  0
  135.4410  135.0060  160.0990 C   0  0  0  0  0  1  0  0  0  0  0  0
  136.5680  135.5910  159.4610 O   0  0  0  0  0  0  0  0  0  0  0  0
  137.4390  137.1910  151.7610 C   0  0  0  0  0  2  0  0  0  0  0  0
  136.5430  136.1520  152.3850 C   0  0  0  0  0  0  0  0  0  0  0  0
  136.4110  136.0820  153.7760 C   0  0  0  0  0  3  0  0  0  0  0  0
  135.5370  135.1630  154.3560 C   0  0  0  0  0  3  0  0  0  0  0  0
  134.7770  134.3050  153.5530 C   0  0  0  0  0  0  0  0  0  0  0  0
  134.9040  134.3450  152.1610 C   0  0  0  0  0  0  0  0  0  0  0  0
  135.7910  135.2730  151.5910 C   0  0  0  0  0  3  0  0  0  0  0  0
  133.9130  133.4460  154.1730 O   0  0  0  0  0  0  0  0  0  0  0  0
  133.0650  133.7440  154.4390 H   0  0  0  0  0  0  0  0  0  0  0  0
  134.2560  133.5810  151.2260 O   0  0  0  0  0  0  0  0  0  0  0  0
  133.0780  134.1120  150.6360 C   0  0  0  0  0  1  0  0  0  0  0  0
  1  5  1  0  0  0  0
  2  1  2  0  0  0  0
  3  1  1  0  0  0  0
  3  4  1  0  0  0  0
  5  6  1  0  0  0  0
  6  7  1  0  0  0  0
  7  8  1  0  0  0  0
  8  9  1  0  0  0  0
  9 10  1  0  0  0  0
 10 11  1  0  0  0  0
 11 13  1  0  0  0  0
 13 12  1  0  0  0  0
 14 15  1  0  0  0  0
 14  3  1  0  0  0  0
 15 16  1  0  0  0  0
 16 17  2  0  0  0  0
 18 21  1  0  0  0  0
 18 17  1  0  0  0  0
 19 18  2  0  0  0  0
 20 19  1  0  0  0  0
 20 15  2  0  0  0  0
 21 22  1  0  0  0  0
 23 19  1  0  0  0  0
 24 23  1  0  0  0  0
M  END
>  <MODEL>
1

>  <REMARK>
 VINA RESULT:    -5.388      0.000      0.000
 INTER + INTRA:         -10.015
 INTER:                  -9.220
 INTRA:                  -0.795
 UNBOUND:                -1.004
  Name = CHEMBL76571
  14 active torsions:
  status: ('A' for Active; 'I' for Inactive)
    1  A    between atoms: C_1  and  O_2
    2  A    between atoms: O_2  and  C_3
    3  A    between atoms: C_3  and  C_4
    4  A    between atoms: C_4  and  O_5
    5  A    between atoms: O_5  and  C_6
    6  A    between atoms: C_6  and  C_7
    7  A    between atoms: C_7  and  O_8
    8  A    between atoms: O_8  and  C_9
    9  A    between atoms: C_9  and  C_10
   10  A    between atoms: N_12  and  C_13
   11  A    between atoms: C_13  and  C_14
   12  A    between atoms: C_17  and  O_18
   13  A    between atoms: C_19  and  O_20
   14  A    between atoms: O_20  and  C_21
                            x       y       z     vdW  Elec       q    Type
                         _______ _______ _______ _____ _____    ______ ____

>  <TORSDO>
F 12

>  <SCORE>
-5.388

>  <RMSD_LB>
0.000

>  <RMSD_UB>
0.000

$$$$
CHEMBL76571
 OpenBabel10172500413D

 24 24  0  0  0  0  0  0  0  0999 V2000
  144.3710  139.6080  154.8090 C   0  0  0  0  0  0  0  0  0  0  0  0
  144.8160  138.5080  154.4970 O   0  0  0  0  0  0  0  0  0  0  0  0
  145.0450  140.7870  154.6200 N   0  0  0  0  0  0  0  0  0  0  0  0
  144.6210  141.6230  154.9200 H   0  0  0  0  0  0  0  0  0  0  0  0
  142.9940  139.7600  155.4670 C   0  0  0  0  0  2  0  0  0  0  0  0
  141.9340  139.3830  154.5900 O   0  0  0  0  0  0  0  0  0  0  0  0
  141.5480  138.0240  154.7970 C   0  0  0  0  0  2  0  0  0  0  0  0
  140.1770  138.0030  155.4630 C   0  0  0  0  0  2  0  0  0  0  0  0
  139.2100  138.5860  154.5910 O   0  0  0  0  0  0  0  0  0  0  0  0
  137.8920  138.4510  155.1280 C   0  0  0  0  0  2  0  0  0  0  0  0
  137.9810  137.9720  156.5700 C   0  0  0  0  0  2  0  0  0  0  0  0
  136.4700  137.4570  158.2970 C   0  0  0  0  0  1  0  0  0  0  0  0
  136.8160  138.3880  157.2810 O   0  0  0  0  0  0  0  0  0  0  0  0
  146.3470  140.8610  154.0020 C   0  0  0  0  0  2  0  0  0  0  0  0
  146.2260  141.1130  152.5210 C   0  0  0  0  0  0  0  0  0  0  0  0
  145.8230  142.3690  152.0520 C   0  0  0  0  0  3  0  0  0  0  0  0
  145.7680  142.6260  150.6830 C   0  0  0  0  0  3  0  0  0  0  0  0
  146.1220  141.6340  149.7610 C   0  0  0  0  0  0  0  0  0  0  0  0
  146.5120  140.3660  150.2050 C   0  0  0  0  0  0  0  0  0  0  0  0
  146.5580  140.1200  151.5870 C   0  0  0  0  0  3  0  0  0  0  0  0
  146.0810  141.9500  148.4320 O   0  0  0  0  0  0  0  0  0  0  0  0
  146.4730  141.3780  147.8020 H   0  0  0  0  0  0  0  0  0  0  0  0
  146.8780  139.2790  149.4560 O   0  0  0  0  0  0  0  0  0  0  0  0
  145.8560  138.3810  149.0470 C   0  0  0  0  0  1  0  0  0  0  0  0
  1  5  1  0  0  0  0
  2  1  2  0  0  0  0
  3  1  1  0  0  0  0
  3  4  1  0  0  0  0
  6  7  1  0  0  0  0
  6  5  1  0  0  0  0
  7  8  1  0  0  0  0
  9 10  1  0  0  0  0
  9  8  1  0  0  0  0
 10 11  1  0  0  0  0
 11 13  1  0  0  0  0
 13 12  1  0  0  0  0
 14  3  1  0  0  0  0
 15 14  1  0  0  0  0
 16 15  1  0  0  0  0
 17 16  2  0  0  0  0
 18 19  2  0  0  0  0
 18 17  1  0  0  0  0
 19 20  1  0  0  0  0
 20 15  2  0  0  0  0
 21 18  1  0  0  0  0
 22 21  1  0  0  0  0
 23 19  1  0  0  0  0
 24 23  1  0  0  0  0
M  END
>  <MODEL>
2

>  <REMARK>
 VINA RESULT:    -5.357      5.603      9.228
 INTER + INTRA:          -9.963
 INTER:                  -9.416
 INTRA:                  -0.547
 UNBOUND:                -1.004
  Name = CHEMBL76571
  14 active torsions:
  status: ('A' for Active; 'I' for Inactive)
    1  A    between atoms: C_1  and  O_2
    2  A    between atoms: O_2  and  C_3
    3  A    between atoms: C_3  and  C_4
    4  A    between atoms: C_4  and  O_5
    5  A    between atoms: O_5  and  C_6
    6  A    between atoms: C_6  and  C_7
    7  A    between atoms: C_7  and  O_8
    8  A    between atoms: O_8  and  C_9
    9  A    between atoms: C_9  and  C_10
   10  A    between atoms: N_12  and  C_13
   11  A    between atoms: C_13  and  C_14
   12  A    between atoms: C_17  and  O_18
   13  A    between atoms: C_19  and  O_20
   14  A    between atoms: O_20  and  C_21
                            x       y       z     vdW  Elec       q    Type
                         _______ _______ _______ _____ _____    ______ ____

>  <TORSDO>
F 12

>  <SCORE>
-5.357

>  <RMSD_LB>
5.603

>  <RMSD_UB>
9.228

$$$$
CHEMBL76571
 OpenBabel10172500413D

 24 24  0  0  0  0  0  0  0  0999 V2000
  135.2310  135.7680  152.5930 C   0  0  0  0  0  0  0  0  0  0  0  0
  134.1160  136.2750  152.6690 O   0  0  0  0  0  0  0  0  0  0  0  0
  135.8640  135.1540  153.6430 N   0  0  0  0  0  0  0  0  0  0  0  0
  136.7670  134.7910  153.4990 H   0  0  0  0  0  0  0  0  0  0  0  0
  136.0370  135.7910  151.2890 C   0  0  0  0  0  2  0  0  0  0  0  0
  135.2500  135.4030  150.1630 O   0  0  0  0  0  0  0  0  0  0  0  0
  134.9740  136.5190  149.3160 C   0  0  0  0  0  2  0  0  0  0  0  0
  133.4640  136.6380  149.1450 C   0  0  0  0  0  2  0  0  0  0  0  0
  132.8730  135.3410  149.1700 O   0  0  0  0  0  0  0  0  0  0  0  0
  132.7880  134.7920  147.8540 C   0  0  0  0  0  2  0  0  0  0  0  0
  132.9900  133.2840  147.9210 C   0  0  0  0  0  2  0  0  0  0  0  0
  135.2540  132.9440  147.3850 C   0  0  0  0  0  1  0  0  0  0  0  0
  133.9160  132.8840  146.9120 O   0  0  0  0  0  0  0  0  0  0  0  0
  135.2680  135.0120  154.9500 C   0  0  0  0  0  2  0  0  0  0  0  0
  135.9430  135.9160  155.9500 C   0  0  0  0  0  0  0  0  0  0  0  0
  135.8760  135.6250  157.3180 C   0  0  0  0  0  3  0  0  0  0  0  0
  136.5490  136.4230  158.2420 C   0  0  0  0  0  3  0  0  0  0  0  0
  137.3040  137.5210  157.8120 C   0  0  0  0  0  0  0  0  0  0  0  0
  137.3720  137.8410  156.4520 C   0  0  0  0  0  0  0  0  0  0  0  0
  136.6850  137.0310  155.5330 C   0  0  0  0  0  3  0  0  0  0  0  0
  137.9700  138.2500  158.7570 O   0  0  0  0  0  0  0  0  0  0  0  0
  137.4920  138.7980  159.3490 H   0  0  0  0  0  0  0  0  0  0  0  0
  138.0450  138.8750  155.8550 O   0  0  0  0  0  0  0  0  0  0  0  0
  138.4940  138.6910  154.5210 C   0  0  0  0  0  1  0  0  0  0  0  0
  1  2  2  0  0  0  0
  1  3  1  0  0  0  0
  3 14  1  0  0  0  0
  4  3  1  0  0  0  0
  5  1  1  0  0  0  0
  6  5  1  0  0  0  0
  7  6  1  0  0  0  0
  8  9  1  0  0  0  0
  8  7  1  0  0  0  0
 10 11  1  0  0  0  0
 10  9  1  0  0  0  0
 13 12  1  0  0  0  0
 13 11  1  0  0  0  0
 14 15  1  0  0  0  0
 15 16  1  0  0  0  0
 16 17  2  0  0  0  0
 18 17  1  0  0  0  0
 18 21  1  0  0  0  0
 19 18  2  0  0  0  0
 20 15  2  0  0  0  0
 20 19  1  0  0  0  0
 21 22  1  0  0  0  0
 23 19  1  0  0  0  0
 24 23  1  0  0  0  0
M  END
>  <MODEL>
3

>  <REMARK>
 VINA RESULT:    -5.289      2.424      7.972
 INTER + INTRA:          -9.849
 INTER:                  -9.170
 INTRA:                  -0.680
 UNBOUND:                -1.004
  Name = CHEMBL76571
  14 active torsions:
  status: ('A' for Active; 'I' for Inactive)
    1  A    between atoms: C_1  and  O_2
    2  A    between atoms: O_2  and  C_3
    3  A    between atoms: C_3  and  C_4
    4  A    between atoms: C_4  and  O_5
    5  A    between atoms: O_5  and  C_6
    6  A    between atoms: C_6  and  C_7
    7  A    between atoms: C_7  and  O_8
    8  A    between atoms: O_8  and  C_9
    9  A    between atoms: C_9  and  C_10
   10  A    between atoms: N_12  and  C_13
   11  A    between atoms: C_13  and  C_14
   12  A    between atoms: C_17  and  O_18
   13  A    between atoms: C_19  and  O_20
   14  A    between atoms: O_20  and  C_21
                            x       y       z     vdW  Elec       q    Type
                         _______ _______ _______ _____ _____    ______ ____

>  <TORSDO>
F 12

>  <SCORE>
-5.289

>  <RMSD_LB>
2.424

>  <RMSD_UB>
7.972

$$$$
CHEMBL76571
 OpenBabel10172500413D

 24 24  0  0  0  0  0  0  0  0999 V2000
  142.8840  139.7500  151.0510 C   0  0  0  0  0  0  0  0  0  0  0  0
  142.0450  140.2450  150.3060 O   0  0  0  0  0  0  0  0  0  0  0  0
  142.6750  138.6100  151.7850 N   0  0  0  0  0  0  0  0  0  0  0  0
  143.3970  138.2930  152.3750 H   0  0  0  0  0  0  0  0  0  0  0  0
  144.2650  140.3860  151.2430 C   0  0  0  0  0  2  0  0  0  0  0  0
  144.6670  141.1510  150.1080 O   0  0  0  0  0  0  0  0  0  0  0  0
  145.9650  141.7170  150.2970 C   0  0  0  0  0  2  0  0  0  0  0  0
  146.0340  142.3200  151.6950 C   0  0  0  0  0  2  0  0  0  0  0  0
  147.3950  142.4150  152.1120 O   0  0  0  0  0  0  0  0  0  0  0  0
  147.5560  141.9190  153.4420 C   0  0  0  0  0  2  0  0  0  0  0  0
  148.7890  141.0270  153.5020 C   0  0  0  0  0  2  0  0  0  0  0  0
  148.2330  139.1180  154.7580 C   0  0  0  0  0  1  0  0  0  0  0  0
  148.8550  140.3960  154.7800 O   0  0  0  0  0  0  0  0  0  0  0  0
  141.4480  137.8510  151.7330 C   0  0  0  0  0  2  0  0  0  0  0  0
  140.7470  137.8700  153.0670 C   0  0  0  0  0  0  0  0  0  0  0  0
  141.4860  138.0060  154.2480 C   0  0  0  0  0  3  0  0  0  0  0  0
  140.8380  138.0850  155.4800 C   0  0  0  0  0  3  0  0  0  0  0  0
  139.4410  138.0370  155.5490 C   0  0  0  0  0  0  0  0  0  0  0  0
  138.6820  137.8860  154.3840 C   0  0  0  0  0  0  0  0  0  0  0  0
  139.3480  137.8020  153.1510 C   0  0  0  0  0  3  0  0  0  0  0  0
  138.8560  138.1520  156.7790 O   0  0  0  0  0  0  0  0  0  0  0  0
  138.1030  137.6360  156.9910 H   0  0  0  0  0  0  0  0  0  0  0  0
  137.3190  137.8080  154.2630 O   0  0  0  0  0  0  0  0  0  0  0  0
  136.7010  136.5560  154.5250 C   0  0  0  0  0  1  0  0  0  0  0  0
  1  5  1  0  0  0  0
  1  3  1  0  0  0  0
  2  1  2  0  0  0  0
  3  4  1  0  0  0  0
  6  7  1  0  0  0  0
  6  5  1  0  0  0  0
  7  8  1  0  0  0  0
  8  9  1  0  0  0  0
  9 10  1  0  0  0  0
 10 11  1  0  0  0  0
 11 13  1  0  0  0  0
 12 13  1  0  0  0  0
 14  3  1  0  0  0  0
 14 15  1  0  0  0  0
 15 20  2  0  0  0  0
 15 16  1  0  0  0  0
 16 17  2  0  0  0  0
 17 18  1  0  0  0  0
 18 21  1  0  0  0  0
 19 18  2  0  0  0  0
 20 19  1  0  0  0  0
 21 22  1  0  0  0  0
 23 19  1  0  0  0  0
 23 24  1  0  0  0  0
M  END
>  <MODEL>
4

>  <REMARK>
 VINA RESULT:    -4.962      5.384      8.436
 INTER + INTRA:          -9.302
 INTER:                  -8.756
 INTRA:                  -0.546
 UNBOUND:                -1.004
  Name = CHEMBL76571
  14 active torsions:
  status: ('A' for Active; 'I' for Inactive)
    1  A    between atoms: C_1  and  O_2
    2  A    between atoms: O_2  and  C_3
    3  A    between atoms: C_3  and  C_4
    4  A    between atoms: C_4  and  O_5
    5  A    between atoms: O_5  and  C_6
    6  A    between atoms: C_6  and  C_7
    7  A    between atoms: C_7  and  O_8
    8  A    between atoms: O_8  and  C_9
    9  A    between atoms: C_9  and  C_10
   10  A    between atoms: N_12  and  C_13
   11  A    between atoms: C_13  and  C_14
   12  A    between atoms: C_17  and  O_18
   13  A    between atoms: C_19  and  O_20
   14  A    between atoms: O_20  and  C_21
                            x       y       z     vdW  Elec       q    Type
                         _______ _______ _______ _____ _____    ______ ____

>  <TORSDO>
F 12

>  <SCORE>
-4.962

>  <RMSD_LB>
5.384

>  <RMSD_UB>
8.436

$$$$
CHEMBL76571
 OpenBabel10172500413D

 24 24  0  0  0  0  0  0  0  0999 V2000
  140.0270  138.6100  154.9530 C   0  0  0  0  0  0  0  0  0  0  0  0
  139.5580  139.6500  154.5000 O   0  0  0  0  0  0  0  0  0  0  0  0
  141.2480  138.1020  154.5900 N   0  0  0  0  0  0  0  0  0  0  0  0
  141.5380  137.2500  154.9870 H   0  0  0  0  0  0  0  0  0  0  0  0
  139.2630  137.7620  155.9760 C   0  0  0  0  0  2  0  0  0  0  0  0
  138.1240  138.4450  156.4980 O   0  0  0  0  0  0  0  0  0  0  0  0
  137.2430  137.5450  157.1710 C   0  0  0  0  0  2  0  0  0  0  0  0
  137.4800  136.1390  156.6330 C   0  0  0  0  0  2  0  0  0  0  0  0
  136.2310  135.4720  156.4610 O   0  0  0  0  0  0  0  0  0  0  0  0
  135.7800  135.5740  155.1090 C   0  0  0  0  0  2  0  0  0  0  0  0
  134.2670  135.4110  155.0670 C   0  0  0  0  0  2  0  0  0  0  0  0
  134.8810  134.1120  153.2050 C   0  0  0  0  0  1  0  0  0  0  0  0
  133.9330  134.2920  154.2480 O   0  0  0  0  0  0  0  0  0  0  0  0
  142.1290  138.7570  153.6530 C   0  0  0  0  0  2  0  0  0  0  0  0
  143.5630  138.3610  153.8940 C   0  0  0  0  0  0  0  0  0  0  0  0
  143.9560  137.0240  153.7530 C   0  0  0  0  0  3  0  0  0  0  0  0
  145.2920  136.6620  153.9150 C   0  0  0  0  0  3  0  0  0  0  0  0
  146.2570  137.6300  154.2150 C   0  0  0  0  0  0  0  0  0  0  0  0
  145.8860  138.9690  154.3770 C   0  0  0  0  0  0  0  0  0  0  0  0
  144.5350  139.3190  154.2150 C   0  0  0  0  0  3  0  0  0  0  0  0
  147.5570  137.2250  154.3320 O   0  0  0  0  0  0  0  0  0  0  0  0
  147.8560  136.8290  155.1270 H   0  0  0  0  0  0  0  0  0  0  0  0
  146.6840  140.0410  154.6810 O   0  0  0  0  0  0  0  0  0  0  0  0
  146.5570  141.2090  153.8820 C   0  0  0  0  0  1  0  0  0  0  0  0
  1  5  1  0  0  0  0
  2  1  2  0  0  0  0
  3  1  1  0  0  0  0
  3  4  1  0  0  0  0
  5  6  1  0  0  0  0
  6  7  1  0  0  0  0
  8  7  1  0  0  0  0
  9  8  1  0  0  0  0
 10  9  1  0  0  0  0
 11 10  1  0  0  0  0
 12 13  1  0  0  0  0
 13 11  1  0  0  0  0
 14 15  1  0  0  0  0
 14  3  1  0  0  0  0
 15 20  1  0  0  0  0
 16 15  2  0  0  0  0
 16 17  1  0  0  0  0
 17 18  2  0  0  0  0
 18 21  1  0  0  0  0
 18 19  1  0  0  0  0
 19 23  1  0  0  0  0
 20 19  2  0  0  0  0
 21 22  1  0  0  0  0
 24 23  1  0  0  0  0
M  END
>  <MODEL>
5

>  <REMARK>
 VINA RESULT:    -4.960      4.071      8.165
 INTER + INTRA:          -9.299
 INTER:                  -8.786
 INTRA:                  -0.513
 UNBOUND:                -1.004
  Name = CHEMBL76571
  14 active torsions:
  status: ('A' for Active; 'I' for Inactive)
    1  A    between atoms: C_1  and  O_2
    2  A    between atoms: O_2  and  C_3
    3  A    between atoms: C_3  and  C_4
    4  A    between atoms: C_4  and  O_5
    5  A    between atoms: O_5  and  C_6
    6  A    between atoms: C_6  and  C_7
    7  A    between atoms: C_7  and  O_8
    8  A    between atoms: O_8  and  C_9
    9  A    between atoms: C_9  and  C_10
   10  A    between atoms: N_12  and  C_13
   11  A    between atoms: C_13  and  C_14
   12  A    between atoms: C_17  and  O_18
   13  A    between atoms: C_19  and  O_20
   14  A    between atoms: O_20  and  C_21
                            x       y       z     vdW  Elec       q    Type
                         _______ _______ _______ _____ _____    ______ ____

>  <TORSDO>
F 12

>  <SCORE>
-4.960

>  <RMSD_LB>
4.071

>  <RMSD_UB>
8.165

$$$$
CHEMBL76571
 OpenBabel10172500413D

 24 24  0  0  0  0  0  0  0  0999 V2000
  145.1670  140.0710  149.1230 C   0  0  0  0  0  0  0  0  0  0  0  0
  144.1490  140.3900  149.7290 O   0  0  0  0  0  0  0  0  0  0  0  0
  146.3030  140.8370  149.0820 N   0  0  0  0  0  0  0  0  0  0  0  0
  147.0680  140.5130  148.5530 H   0  0  0  0  0  0  0  0  0  0  0  0
  145.2520  138.7630  148.3280 C   0  0  0  0  0  2  0  0  0  0  0  0
  146.5650  138.2060  148.3460 O   0  0  0  0  0  0  0  0  0  0  0  0
  146.7870  137.4400  149.5310 C   0  0  0  0  0  2  0  0  0  0  0  0
  145.6330  136.4580  149.6980 C   0  0  0  0  0  2  0  0  0  0  0  0
  145.4810  136.1240  151.0770 O   0  0  0  0  0  0  0  0  0  0  0  0
  146.0750  137.1190  151.9120 C   0  0  0  0  0  2  0  0  0  0  0  0
  146.2340  136.5670  153.3220 C   0  0  0  0  0  2  0  0  0  0  0  0
  148.1280  137.9300  153.0280 C   0  0  0  0  0  1  0  0  0  0  0  0
  147.3350  137.2090  153.9620 O   0  0  0  0  0  0  0  0  0  0  0  0
  146.4330  142.0950  149.7780 C   0  0  0  0  0  2  0  0  0  0  0  0
  147.0800  141.9010  151.1250 C   0  0  0  0  0  0  0  0  0  0  0  0
  148.4560  142.1030  151.2800 C   0  0  0  0  0  3  0  0  0  0  0  0
  149.0500  141.9840  152.5360 C   0  0  0  0  0  3  0  0  0  0  0  0
  148.2750  141.6680  153.6580 C   0  0  0  0  0  0  0  0  0  0  0  0
  146.9000  141.4450  153.5260 C   0  0  0  0  0  0  0  0  0  0  0  0
  146.3170  141.5640  152.2530 C   0  0  0  0  0  3  0  0  0  0  0  0
  148.9020  141.5960  154.8700 O   0  0  0  0  0  0  0  0  0  0  0  0
  149.5970  142.1900  155.0750 H   0  0  0  0  0  0  0  0  0  0  0  0
  145.9950  141.1180  154.5010 O   0  0  0  0  0  0  0  0  0  0  0  0
  145.1280  140.0190  154.2590 C   0  0  0  0  0  1  0  0  0  0  0  0
  1  2  2  0  0  0  0
  3  1  1  0  0  0  0
  3 14  1  0  0  0  0
  4  3  1  0  0  0  0
  5  6  1  0  0  0  0
  5  1  1  0  0  0  0
  6  7  1  0  0  0  0
  7  8  1  0  0  0  0
  8  9  1  0  0  0  0
  9 10  1  0  0  0  0
 10 11  1  0  0  0  0
 11 13  1  0  0  0  0
 12 13  1  0  0  0  0
 14 15  1  0  0  0  0
 15 16  2  0  0  0  0
 15 20  1  0  0  0  0
 16 17  1  0  0  0  0
 17 18  2  0  0  0  0
 18 21  1  0  0  0  0
 19 18  1  0  0  0  0
 19 23  1  0  0  0  0
 20 19  2  0  0  0  0
 21 22  1  0  0  0  0
 24 23  1  0  0  0  0
M  END
>  <MODEL>
6

>  <REMARK>
 VINA RESULT:    -4.921      9.760     12.080
 INTER + INTRA:          -9.234
 INTER:                  -8.074
 INTRA:                  -1.161
 UNBOUND:                -1.004
  Name = CHEMBL76571
  14 active torsions:
  status: ('A' for Active; 'I' for Inactive)
    1  A    between atoms: C_1  and  O_2
    2  A    between atoms: O_2  and  C_3
    3  A    between atoms: C_3  and  C_4
    4  A    between atoms: C_4  and  O_5
    5  A    between atoms: O_5  and  C_6
    6  A    between atoms: C_6  and  C_7
    7  A    between atoms: C_7  and  O_8
    8  A    between atoms: O_8  and  C_9
    9  A    between atoms: C_9  and  C_10
   10  A    between atoms: N_12  and  C_13
   11  A    between atoms: C_13  and  C_14
   12  A    between atoms: C_17  and  O_18
   13  A    between atoms: C_19  and  O_20
   14  A    between atoms: O_20  and  C_21
                            x       y       z     vdW  Elec       q    Type
                         _______ _______ _______ _____ _____    ______ ____

>  <TORSDO>
F 12

>  <SCORE>
-4.921

>  <RMSD_LB>
9.760

>  <RMSD_UB>
12.080

$$$$
CHEMBL76571
 OpenBabel10172500413D

 24 24  0  0  0  0  0  0  0  0999 V2000
  142.0100  138.9100  151.8640 C   0  0  0  0  0  0  0  0  0  0  0  0
  141.6980  139.0120  150.6820 O   0  0  0  0  0  0  0  0  0  0  0  0
  143.1500  139.4480  152.4020 N   0  0  0  0  0  0  0  0  0  0  0  0
  143.3330  139.3000  153.3580 H   0  0  0  0  0  0  0  0  0  0  0  0
  141.1370  138.1400  152.8620 C   0  0  0  0  0  2  0  0  0  0  0  0
  141.0910  138.7760  154.1390 O   0  0  0  0  0  0  0  0  0  0  0  0
  139.9670  138.3310  154.8990 C   0  0  0  0  0  2  0  0  0  0  0  0
  138.7030  138.9360  154.3000 C   0  0  0  0  0  2  0  0  0  0  0  0
  137.7480  137.9070  154.0490 O   0  0  0  0  0  0  0  0  0  0  0  0
  137.6300  137.0340  155.1740 C   0  0  0  0  0  2  0  0  0  0  0  0
  136.5980  135.9570  154.8720 C   0  0  0  0  0  2  0  0  0  0  0  0
  136.5190  135.9520  157.2220 C   0  0  0  0  0  1  0  0  0  0  0  0
  135.7840  135.7430  156.0240 O   0  0  0  0  0  0  0  0  0  0  0  0
  144.0960  140.2230  151.6340 C   0  0  0  0  0  2  0  0  0  0  0  0
  145.3140  140.5540  152.4570 C   0  0  0  0  0  0  0  0  0  0  0  0
  145.7440  141.8820  152.5740 C   0  0  0  0  0  3  0  0  0  0  0  0
  146.8340  142.2010  153.3830 C   0  0  0  0  0  3  0  0  0  0  0  0
  147.5070  141.1990  154.0920 C   0  0  0  0  0  0  0  0  0  0  0  0
  147.1060  139.8640  153.9770 C   0  0  0  0  0  0  0  0  0  0  0  0
  146.0100  139.5570  153.1560 C   0  0  0  0  0  3  0  0  0  0  0  0
  148.5480  141.5720  154.8940 O   0  0  0  0  0  0  0  0  0  0  0  0
  148.4700  142.3270  155.4430 H   0  0  0  0  0  0  0  0  0  0  0  0
  147.6490  138.7600  154.5810 O   0  0  0  0  0  0  0  0  0  0  0  0
  147.2600  138.4760  155.9170 C   0  0  0  0  0  1  0  0  0  0  0  0
  1  3  1  0  0  0  0
  1  5  1  0  0  0  0
  2  1  2  0  0  0  0
  3  4  1  0  0  0  0
  5  6  1  0  0  0  0
  6  7  1  0  0  0  0
  8  7  1  0  0  0  0
  9  8  1  0  0  0  0
  9 10  1  0  0  0  0
 11 10  1  0  0  0  0
 11 13  1  0  0  0  0
 13 12  1  0  0  0  0
 14  3  1  0  0  0  0
 14 15  1  0  0  0  0
 15 16  2  0  0  0  0
 15 20  1  0  0  0  0
 16 17  1  0  0  0  0
 17 18  2  0  0  0  0
 18 21  1  0  0  0  0
 19 18  1  0  0  0  0
 19 23  1  0  0  0  0
 20 19  2  0  0  0  0
 21 22  1  0  0  0  0
 23 24  1  0  0  0  0
M  END
>  <MODEL>
7

>  <REMARK>
 VINA RESULT:    -4.891      5.235      9.156
 INTER + INTRA:          -9.183
 INTER:                  -8.653
 INTRA:                  -0.530
 UNBOUND:                -1.004
  Name = CHEMBL76571
  14 active torsions:
  status: ('A' for Active; 'I' for Inactive)
    1  A    between atoms: C_1  and  O_2
    2  A    between atoms: O_2  and  C_3
    3  A    between atoms: C_3  and  C_4
    4  A    between atoms: C_4  and  O_5
    5  A    between atoms: O_5  and  C_6
    6  A    between atoms: C_6  and  C_7
    7  A    between atoms: C_7  and  O_8
    8  A    between atoms: O_8  and  C_9
    9  A    between atoms: C_9  and  C_10
   10  A    between atoms: N_12  and  C_13
   11  A    between atoms: C_13  and  C_14
   12  A    between atoms: C_17  and  O_18
   13  A    between atoms: C_19  and  O_20
   14  A    between atoms: O_20  and  C_21
                            x       y       z     vdW  Elec       q    Type
                         _______ _______ _______ _____ _____    ______ ____

>  <TORSDO>
F 12

>  <SCORE>
-4.891

>  <RMSD_LB>
5.235

>  <RMSD_UB>
9.156

$$$$
CHEMBL76571
 OpenBabel10172500413D

 24 24  0  0  0  0  0  0  0  0999 V2000
  140.2180  138.4820  155.1770 C   0  0  0  0  0  0  0  0  0  0  0  0
  139.8900  139.6320  154.9050 O   0  0  0  0  0  0  0  0  0  0  0  0
  141.1730  137.7770  154.4910 N   0  0  0  0  0  0  0  0  0  0  0  0
  141.3590  136.8500  154.7640 H   0  0  0  0  0  0  0  0  0  0  0  0
  139.5610  137.7090  156.3270 C   0  0  0  0  0  2  0  0  0  0  0  0
  138.4360  138.4020  156.8670 O   0  0  0  0  0  0  0  0  0  0  0  0
  137.2180  137.7150  156.5800 C   0  0  0  0  0  2  0  0  0  0  0  0
  137.4600  136.2170  156.7140 C   0  0  0  0  0  2  0  0  0  0  0  0
  136.4600  135.5000  155.9910 O   0  0  0  0  0  0  0  0  0  0  0  0
  136.0170  136.2480  154.8570 C   0  0  0  0  0  2  0  0  0  0  0  0
  134.5810  135.8630  154.5300 C   0  0  0  0  0  2  0  0  0  0  0  0
  135.0760  134.3420  152.8060 C   0  0  0  0  0  1  0  0  0  0  0  0
  134.4710  135.5850  153.1350 O   0  0  0  0  0  0  0  0  0  0  0  0
  141.9200  138.3300  153.3870 C   0  0  0  0  0  2  0  0  0  0  0  0
  141.3900  137.8230  152.0700 C   0  0  0  0  0  0  0  0  0  0  0  0
  142.2400  137.1590  151.1780 C   0  0  0  0  0  3  0  0  0  0  0  0
  141.7410  136.6340  149.9870 C   0  0  0  0  0  3  0  0  0  0  0  0
  140.3830  136.7610  149.6710 C   0  0  0  0  0  0  0  0  0  0  0  0
  139.5170  137.4360  150.5390 C   0  0  0  0  0  0  0  0  0  0  0  0
  140.0350  137.9620  151.7330 C   0  0  0  0  0  3  0  0  0  0  0  0
  139.9410  136.2010  148.5060 O   0  0  0  0  0  0  0  0  0  0  0  0
  140.4600  135.5530  148.0710 H   0  0  0  0  0  0  0  0  0  0  0  0
  138.1750  137.6650  150.3900 O   0  0  0  0  0  0  0  0  0  0  0  0
  137.2790  136.6320  150.7750 C   0  0  0  0  0  1  0  0  0  0  0  0
  1  5  1  0  0  0  0
  2  1  2  0  0  0  0
  3  4  1  0  0  0  0
  3  1  1  0  0  0  0
  5  6  1  0  0  0  0
  7  8  1  0  0  0  0
  7  6  1  0  0  0  0
  9  8  1  0  0  0  0
 10  9  1  0  0  0  0
 11 10  1  0  0  0  0
 12 13  1  0  0  0  0
 13 11  1  0  0  0  0
 14  3  1  0  0  0  0
 15 14  1  0  0  0  0
 16 15  2  0  0  0  0
 17 16  1  0  0  0  0
 18 17  2  0  0  0  0
 18 19  1  0  0  0  0
 19 20  2  0  0  0  0
 20 15  1  0  0  0  0
 21 18  1  0  0  0  0
 22 21  1  0  0  0  0
 23 19  1  0  0  0  0
 23 24  1  0  0  0  0
M  END
>  <MODEL>
8

>  <REMARK>
 VINA RESULT:    -4.801      2.344      5.222
 INTER + INTRA:          -9.032
 INTER:                  -8.139
 INTRA:                  -0.894
 UNBOUND:                -1.004
  Name = CHEMBL76571
  14 active torsions:
  status: ('A' for Active; 'I' for Inactive)
    1  A    between atoms: C_1  and  O_2
    2  A    between atoms: O_2  and  C_3
    3  A    between atoms: C_3  and  C_4
    4  A    between atoms: C_4  and  O_5
    5  A    between atoms: O_5  and  C_6
    6  A    between atoms: C_6  and  C_7
    7  A    between atoms: C_7  and  O_8
    8  A    between atoms: O_8  and  C_9
    9  A    between atoms: C_9  and  C_10
   10  A    between atoms: N_12  and  C_13
   11  A    between atoms: C_13  and  C_14
   12  A    between atoms: C_17  and  O_18
   13  A    between atoms: C_19  and  O_20
   14  A    between atoms: O_20  and  C_21
                            x       y       z     vdW  Elec       q    Type
                         _______ _______ _______ _____ _____    ______ ____

>  <TORSDO>
F 12

>  <SCORE>
-4.801

>  <RMSD_LB>
2.344

>  <RMSD_UB>
5.222

$$$$
CHEMBL76571
 OpenBabel10172500413D

 24 24  0  0  0  0  0  0  0  0999 V2000
  137.4280  137.5970  148.6060 C   0  0  0  0  0  0  0  0  0  0  0  0
  138.3750  137.0630  148.0370 O   0  0  0  0  0  0  0  0  0  0  0  0
  136.6800  136.9890  149.5800 N   0  0  0  0  0  0  0  0  0  0  0  0
  135.9240  137.4850  149.9690 H   0  0  0  0  0  0  0  0  0  0  0  0
  136.9810  139.0220  148.2560 C   0  0  0  0  0  2  0  0  0  0  0  0
  137.2780  139.9500  149.2990 O   0  0  0  0  0  0  0  0  0  0  0  0
  138.6240  140.4190  149.2080 C   0  0  0  0  0  2  0  0  0  0  0  0
  139.2910  140.2500  150.5670 C   0  0  0  0  0  2  0  0  0  0  0  0
  139.7940  138.9210  150.6950 O   0  0  0  0  0  0  0  0  0  0  0  0
  139.5500  138.4080  152.0060 C   0  0  0  0  0  2  0  0  0  0  0  0
  140.8060  137.7160  152.5190 C   0  0  0  0  0  2  0  0  0  0  0  0
  139.9710  138.8600  154.3970 C   0  0  0  0  0  1  0  0  0  0  0  0
  141.0730  138.1460  153.8520 O   0  0  0  0  0  0  0  0  0  0  0  0
  136.9480  135.6560  150.0640 C   0  0  0  0  0  2  0  0  0  0  0  0
  136.1150  135.3470  151.2820 C   0  0  0  0  0  0  0  0  0  0  0  0
  135.2730  134.2280  151.2930 C   0  0  0  0  0  3  0  0  0  0  0  0
  134.5470  133.9040  152.4380 C   0  0  0  0  0  3  0  0  0  0  0  0
  134.6560  134.6890  153.5910 C   0  0  0  0  0  0  0  0  0  0  0  0
  135.4780  135.8210  153.5990 C   0  0  0  0  0  0  0  0  0  0  0  0
  136.2000  136.1380  152.4370 C   0  0  0  0  0  3  0  0  0  0  0  0
  133.9470  134.3070  154.6950 O   0  0  0  0  0  0  0  0  0  0  0  0
  133.1060  134.6840  154.8670 H   0  0  0  0  0  0  0  0  0  0  0  0
  135.6960  136.7050  154.6230 O   0  0  0  0  0  0  0  0  0  0  0  0
  136.9840  136.7190  155.2230 C   0  0  0  0  0  1  0  0  0  0  0  0
  1  3  1  0  0  0  0
  2  1  2  0  0  0  0
  3  4  1  0  0  0  0
  3 14  1  0  0  0  0
  5  1  1  0  0  0  0
  5  6  1  0  0  0  0
  7  6  1  0  0  0  0
  7  8  1  0  0  0  0
  8  9  1  0  0  0  0
  9 10  1  0  0  0  0
 10 11  1  0  0  0  0
 11 13  1  0  0  0  0
 13 12  1  0  0  0  0
 14 15  1  0  0  0  0
 15 16  2  0  0  0  0
 15 20  1  0  0  0  0
 16 17  1  0  0  0  0
 17 18  2  0  0  0  0
 18 19  1  0  0  0  0
 18 21  1  0  0  0  0
 19 23  1  0  0  0  0
 20 19  2  0  0  0  0
 21 22  1  0  0  0  0
 23 24  1  0  0  0  0
M  END
>  <MODEL>
9

>  <REMARK>
 VINA RESULT:    -4.644      2.680      5.369
 INTER + INTRA:          -8.770
 INTER:                  -7.766
 INTRA:                  -1.004
 UNBOUND:                -1.004
  Name = CHEMBL76571
  14 active torsions:
  status: ('A' for Active; 'I' for Inactive)
    1  A    between atoms: C_1  and  O_2
    2  A    between atoms: O_2  and  C_3
    3  A    between atoms: C_3  and  C_4
    4  A    between atoms: C_4  and  O_5
    5  A    between atoms: O_5  and  C_6
    6  A    between atoms: C_6  and  C_7
    7  A    between atoms: C_7  and  O_8
    8  A    between atoms: O_8  and  C_9
    9  A    between atoms: C_9  and  C_10
   10  A    between atoms: N_12  and  C_13
   11  A    between atoms: C_13  and  C_14
   12  A    between atoms: C_17  and  O_18
   13  A    between atoms: C_19  and  O_20
   14  A    between atoms: O_20  and  C_21
                            x       y       z     vdW  Elec       q    Type
                         _______ _______ _______ _____ _____    ______ ____

>  <TORSDO>
F 12

>  <SCORE>
-4.644

>  <RMSD_LB>
2.680

>  <RMSD_UB>
5.369

$$$$
