CHEMBL2314237
 OpenBabel10162523503D

 40 41  0  0  0  0  0  0  0  0999 V2000
  143.6560  136.7830  145.5840 N   0  0  0  0  0  4  0  0  0  0  0  0
  143.6350  136.4070  144.6360 H   0  0  0  0  0  0  0  0  0  0  0  0
  144.6220  136.9360  145.8750 H   0  0  0  0  0  0  0  0  0  0  0  0
  142.9410  138.0560  145.6140 C   0  0  0  0  0  2  0  0  0  0  0  0
  143.9220  139.2250  145.4900 C   0  0  0  0  0  2  0  0  0  0  0  0
  144.7480  139.3010  146.7660 C   0  0  0  0  0  2  0  0  0  0  0  0
  144.0760  139.9040  147.8960 N   0  0  0  0  0  0  0  0  0  0  0  0
  144.8220  140.1630  149.0320 C   0  0  0  0  0  0  0  0  0  0  0  0
  146.0160  139.8710  149.1070 O   0  0  0  0  0  0  0  0  0  0  0  0
  143.1160  140.1250  147.8580 H   0  0  0  0  0  0  0  0  0  0  0  0
  144.0880  140.8180  150.1900 C   0  0  0  0  0  2  0  0  0  0  0  0
  144.9180  141.0720  151.4300 C   0  0  0  0  0  0  0  0  0  0  0  0
  145.7330  142.2020  151.5600 C   0  0  0  0  0  3  0  0  0  0  0  0
  146.4710  142.4160  152.7250 C   0  0  0  0  0  3  0  0  0  0  0  0
  146.4430  141.4820  153.7620 C   0  0  0  0  0  0  0  0  0  0  0  0
  145.6980  140.3070  153.6340 C   0  0  0  0  0  0  0  0  0  0  0  0
  144.9410  140.1170  152.4640 C   0  0  0  0  0  3  0  0  0  0  0  0
  145.5990  139.2750  154.5330 O   0  0  0  0  0  0  0  0  0  0  0  0
  146.6490  138.3160  154.5580 C   0  0  0  0  0  1  0  0  0  0  0  0
  147.1650  141.7550  154.8900 O   0  0  0  0  0  0  0  0  0  0  0  0
  146.8110  142.3220  155.5460 H   0  0  0  0  0  0  0  0  0  0  0  0
  143.0260  135.8300  146.4970 C   0  0  0  0  0  2  0  0  0  0  0  0
  144.1060  135.0360  147.2200 C   0  0  0  0  0  2  0  0  0  0  0  0
  145.3690  135.8780  147.4100 C   0  0  0  0  0  2  0  0  0  0  0  0
  145.4450  136.3750  148.8510 C   0  0  0  0  0  2  0  0  0  0  0  0
  144.0140  136.8500  150.7790 C   0  0  0  0  0  0  0  0  0  0  0  0
  144.9790  136.8430  151.5410 O   0  0  0  0  0  0  0  0  0  0  0  0
  144.1380  136.6180  149.4290 N   0  0  0  0  0  0  0  0  0  0  0  0
  143.3390  136.6180  148.8540 H   0  0  0  0  0  0  0  0  0  0  0  0
  142.6040  137.1180  151.2830 C   0  0  0  0  0  2  0  0  0  0  0  0
  139.9510  136.8130  148.5190 C   0  0  0  0  0  0  0  0  0  0  0  0
  140.9070  136.4840  149.4860 C   0  0  0  0  0  3  0  0  0  0  0  0
  141.5860  137.4720  150.2210 C   0  0  0  0  0  0  0  0  0  0  0  0
  141.2380  138.8160  150.0030 C   0  0  0  0  0  3  0  0  0  0  0  0
  140.2800  139.1630  149.0470 C   0  0  0  0  0  3  0  0  0  0  0  0
  139.6500  138.1640  148.3030 C   0  0  0  0  0  0  0  0  0  0  0  0
  138.7240  138.5050  147.3550 O   0  0  0  0  0  0  0  0  0  0  0  0
  139.0010  138.7460  146.4930 H   0  0  0  0  0  0  0  0  0  0  0  0
  138.7240  134.7800  148.4550 C   0  0  0  0  0  1  0  0  0  0  0  0
  139.2760  135.8930  147.7600 O   0  0  0  0  0  0  0  0  0  0  0  0
  1  4  1  0  0  0  0
  1  3  1  0  0  0  0
  1 22  1  0  0  0  0
  2  1  1  0  0  0  0
  5  4  1  0  0  0  0
  5  6  1  0  0  0  0
  6  7  1  0  0  0  0
  7  8  1  0  0  0  0
  8  9  2  0  0  0  0
  8 11  1  0  0  0  0
 10  7  1  0  0  0  0
 11 12  1  0  0  0  0
 12 13  2  0  0  0  0
 12 17  1  0  0  0  0
 13 14  1  0  0  0  0
 14 15  2  0  0  0  0
 15 20  1  0  0  0  0
 16 15  1  0  0  0  0
 16 18  1  0  0  0  0
 17 16  2  0  0  0  0
 18 19  1  0  0  0  0
 20 21  1  0  0  0  0
 22 23  1  0  0  0  0
 23 24  1  0  0  0  0
 24 25  1  0  0  0  0
 25 28  1  0  0  0  0
 26 30  1  0  0  0  0
 26 27  2  0  0  0  0
 28 26  1  0  0  0  0
 29 28  1  0  0  0  0
 31 32  1  0  0  0  0
 32 33  2  0  0  0  0
 33 30  1  0  0  0  0
 34 33  1  0  0  0  0
 35 34  2  0  0  0  0
 36 31  2  0  0  0  0
 36 35  1  0  0  0  0
 37 36  1  0  0  0  0
 38 37  1  0  0  0  0
 40 39  1  0  0  0  0
 40 31  1  0  0  0  0
M  END
>  <MODEL>
1

>  <REMARK>
 VINA RESULT:    -6.108      0.000      0.000
 INTER + INTRA:         -13.228
 INTER:                 -10.807
 INTRA:                  -2.421
 UNBOUND:                -1.407
  Name = CHEMBL2314237
  19 active torsions:
  status: ('A' for Active; 'I' for Inactive)
    1  A    between atoms: C_1  and  O_2
    2  A    between atoms: O_2  and  C_3
    3  A    between atoms: C_5  and  C_6
    4  A    between atoms: C_6  and  C_7
    5  A    between atoms: N_9  and  C_10
    6  A    between atoms: C_10  and  C_11
    7  A    between atoms: C_11  and  C_12
    8  A    between atoms: C_12  and  C_13
    9  A    between atoms: C_13  and  N_14
   10  A    between atoms: N_14  and  C_15
   11  A    between atoms: C_15  and  C_16
   12  A    between atoms: C_16  and  C_17
   13  A    between atoms: C_17  and  N_18
   14  A    between atoms: C_19  and  C_21
   15  A    between atoms: C_21  and  C_22
   16  A    between atoms: C_25  and  O_26
   17  A    between atoms: C_27  and  O_28
   18  A    between atoms: O_28  and  C_29
   19  A    between atoms: C_33  and  O_34
                            x       y       z     vdW  Elec       q    Type
                         _______ _______ _______ _____ _____    ______ ____

>  <TORSDO>
F 17

>  <SCORE>
-6.108

>  <RMSD_LB>
0.000

>  <RMSD_UB>
0.000

$$$$
CHEMBL2314237
 OpenBabel10162523503D

 40 41  0  0  0  0  0  0  0  0999 V2000
  135.6100  136.0290  146.6860 N   0  0  0  0  0  4  0  0  0  0  0  0
  135.3750  136.6080  145.8790 H   0  0  0  0  0  0  0  0  0  0  0  0
  135.5370  135.0430  146.4390 H   0  0  0  0  0  0  0  0  0  0  0  0
  136.9790  136.3180  147.1050 C   0  0  0  0  0  2  0  0  0  0  0  0
  136.9980  136.8690  148.5340 C   0  0  0  0  0  2  0  0  0  0  0  0
  138.0420  137.9740  148.6110 C   0  0  0  0  0  2  0  0  0  0  0  0
  138.4640  138.3260  149.9500 N   0  0  0  0  0  0  0  0  0  0  0  0
  139.3840  137.5050  150.5770 C   0  0  0  0  0  0  0  0  0  0  0  0
  139.8220  136.4870  150.0390 O   0  0  0  0  0  0  0  0  0  0  0  0
  138.1080  139.1260  150.4010 H   0  0  0  0  0  0  0  0  0  0  0  0
  139.8210  137.9190  151.9720 C   0  0  0  0  0  2  0  0  0  0  0  0
  141.2770  138.3090  152.1110 C   0  0  0  0  0  0  0  0  0  0  0  0
  142.0830  137.8130  153.1420 C   0  0  0  0  0  3  0  0  0  0  0  0
  143.4280  138.1770  153.2300 C   0  0  0  0  0  3  0  0  0  0  0  0
  143.9790  139.0770  152.3170 C   0  0  0  0  0  0  0  0  0  0  0  0
  143.1840  139.6480  151.3200 C   0  0  0  0  0  0  0  0  0  0  0  0
  141.8370  139.2530  151.2300 C   0  0  0  0  0  3  0  0  0  0  0  0
  143.5550  140.5750  150.3800 O   0  0  0  0  0  0  0  0  0  0  0  0
  144.2370  140.1060  149.2230 C   0  0  0  0  0  1  0  0  0  0  0  0
  145.3070  139.3780  152.4360 O   0  0  0  0  0  0  0  0  0  0  0  0
  145.5710  140.1660  152.8700 H   0  0  0  0  0  0  0  0  0  0  0  0
  134.6790  136.3200  147.7770 C   0  0  0  0  0  2  0  0  0  0  0  0
  134.0520  135.0200  148.2620 C   0  0  0  0  0  2  0  0  0  0  0  0
  132.8970  135.2960  149.2270 C   0  0  0  0  0  2  0  0  0  0  0  0
  133.1600  134.6000  150.5590 C   0  0  0  0  0  2  0  0  0  0  0  0
  134.8020  135.7740  151.9430 C   0  0  0  0  0  0  0  0  0  0  0  0
  133.9420  136.5370  152.3780 O   0  0  0  0  0  0  0  0  0  0  0  0
  134.5180  134.7860  151.0290 N   0  0  0  0  0  0  0  0  0  0  0  0
  135.2380  134.2050  150.6930 H   0  0  0  0  0  0  0  0  0  0  0  0
  136.2520  135.8720  152.3910 C   0  0  0  0  0  2  0  0  0  0  0  0
  136.0740  135.7690  156.2290 C   0  0  0  0  0  0  0  0  0  0  0  0
  135.8610  135.4650  154.8800 C   0  0  0  0  0  3  0  0  0  0  0  0
  136.4630  136.2110  153.8510 C   0  0  0  0  0  0  0  0  0  0  0  0
  137.3430  137.2470  154.2110 C   0  0  0  0  0  3  0  0  0  0  0  0
  137.5740  137.5580  155.5530 C   0  0  0  0  0  3  0  0  0  0  0  0
  136.9320  136.8270  156.5540 C   0  0  0  0  0  0  0  0  0  0  0  0
  137.1460  137.1430  157.8690 O   0  0  0  0  0  0  0  0  0  0  0  0
  137.8620  136.7560  158.3340 H   0  0  0  0  0  0  0  0  0  0  0  0
  134.2850  134.4010  156.9850 C   0  0  0  0  0  1  0  0  0  0  0  0
  135.4980  135.0890  157.2710 O   0  0  0  0  0  0  0  0  0  0  0  0
  1  4  1  0  0  0  0
  1 22  1  0  0  0  0
  2  1  1  0  0  0  0
  3  1  1  0  0  0  0
  4  5  1  0  0  0  0
  5  6  1  0  0  0  0
  6  7  1  0  0  0  0
  7 10  1  0  0  0  0
  7  8  1  0  0  0  0
  8 11  1  0  0  0  0
  9  8  2  0  0  0  0
 11 12  1  0  0  0  0
 12 13  1  0  0  0  0
 13 14  2  0  0  0  0
 15 20  1  0  0  0  0
 15 14  1  0  0  0  0
 16 15  2  0  0  0  0
 17 16  1  0  0  0  0
 17 12  2  0  0  0  0
 18 16  1  0  0  0  0
 19 18  1  0  0  0  0
 20 21  1  0  0  0  0
 22 23  1  0  0  0  0
 23 24  1  0  0  0  0
 24 25  1  0  0  0  0
 25 28  1  0  0  0  0
 26 27  2  0  0  0  0
 26 30  1  0  0  0  0
 28 26  1  0  0  0  0
 29 28  1  0  0  0  0
 30 33  1  0  0  0  0
 31 36  1  0  0  0  0
 31 40  1  0  0  0  0
 32 31  2  0  0  0  0
 33 34  2  0  0  0  0
 33 32  1  0  0  0  0
 34 35  1  0  0  0  0
 35 36  2  0  0  0  0
 36 37  1  0  0  0  0
 37 38  1  0  0  0  0
 39 40  1  0  0  0  0
M  END
>  <MODEL>
2

>  <REMARK>
 VINA RESULT:    -6.071      5.581      7.797
 INTER + INTRA:         -13.156
 INTER:                 -11.638
 INTRA:                  -1.518
 UNBOUND:                -1.407
  Name = CHEMBL2314237
  19 active torsions:
  status: ('A' for Active; 'I' for Inactive)
    1  A    between atoms: C_1  and  O_2
    2  A    between atoms: O_2  and  C_3
    3  A    between atoms: C_5  and  C_6
    4  A    between atoms: C_6  and  C_7
    5  A    between atoms: N_9  and  C_10
    6  A    between atoms: C_10  and  C_11
    7  A    between atoms: C_11  and  C_12
    8  A    between atoms: C_12  and  C_13
    9  A    between atoms: C_13  and  N_14
   10  A    between atoms: N_14  and  C_15
   11  A    between atoms: C_15  and  C_16
   12  A    between atoms: C_16  and  C_17
   13  A    between atoms: C_17  and  N_18
   14  A    between atoms: C_19  and  C_21
   15  A    between atoms: C_21  and  C_22
   16  A    between atoms: C_25  and  O_26
   17  A    between atoms: C_27  and  O_28
   18  A    between atoms: O_28  and  C_29
   19  A    between atoms: C_33  and  O_34
                            x       y       z     vdW  Elec       q    Type
                         _______ _______ _______ _____ _____    ______ ____

>  <TORSDO>
F 17

>  <SCORE>
-6.071

>  <RMSD_LB>
5.581

>  <RMSD_UB>
7.797

$$$$
CHEMBL2314237
 OpenBabel10162523503D

 40 41  0  0  0  0  0  0  0  0999 V2000
  135.8250  137.4470  144.9220 N   0  0  0  0  0  4  0  0  0  0  0  0
  135.2600  137.3230  144.0810 H   0  0  0  0  0  0  0  0  0  0  0  0
  136.2130  136.5500  145.2150 H   0  0  0  0  0  0  0  0  0  0  0  0
  136.9200  138.3700  144.6370 C   0  0  0  0  0  2  0  0  0  0  0  0
  136.3840  139.7910  144.4390 C   0  0  0  0  0  2  0  0  0  0  0  0
  135.7820  139.8910  143.0450 C   0  0  0  0  0  2  0  0  0  0  0  0
  134.3360  139.9010  143.0020 N   0  0  0  0  0  0  0  0  0  0  0  0
  133.6910  138.7450  142.6000 C   0  0  0  0  0  0  0  0  0  0  0  0
  134.3120  137.7370  142.2610 O   0  0  0  0  0  0  0  0  0  0  0  0
  133.8250  140.7060  143.2520 H   0  0  0  0  0  0  0  0  0  0  0  0
  132.1720  138.7850  142.5900 C   0  0  0  0  0  2  0  0  0  0  0  0
  131.5320  138.9370  141.2260 C   0  0  0  0  0  0  0  0  0  0  0  0
  132.2900  139.1630  140.0710 C   0  0  0  0  0  3  0  0  0  0  0  0
  131.6700  139.2780  138.8260 C   0  0  0  0  0  3  0  0  0  0  0  0
  130.2790  139.2150  138.7190 C   0  0  0  0  0  0  0  0  0  0  0  0
  129.4890  139.0630  139.8610 C   0  0  0  0  0  0  0  0  0  0  0  0
  130.1300  138.9250  141.1050 C   0  0  0  0  0  3  0  0  0  0  0  0
  128.1200  139.0260  139.9340 O   0  0  0  0  0  0  0  0  0  0  0  0
  127.4290  140.2650  140.0430 C   0  0  0  0  0  1  0  0  0  0  0  0
  129.7280  139.3080  137.4720 O   0  0  0  0  0  0  0  0  0  0  0  0
  129.3840  140.1260  137.1720 H   0  0  0  0  0  0  0  0  0  0  0  0
  134.9850  137.9780  145.9960 C   0  0  0  0  0  2  0  0  0  0  0  0
  133.6440  137.2560  145.9880 C   0  0  0  0  0  2  0  0  0  0  0  0
  133.0200  137.2460  147.3850 C   0  0  0  0  0  2  0  0  0  0  0  0
  132.8060  135.8070  147.8430 C   0  0  0  0  0  2  0  0  0  0  0  0
  134.0520  135.4560  149.9210 C   0  0  0  0  0  0  0  0  0  0  0  0
  133.2140  136.0820  150.5690 O   0  0  0  0  0  0  0  0  0  0  0  0
  133.9460  135.2730  148.5620 N   0  0  0  0  0  0  0  0  0  0  0  0
  134.6450  134.7790  148.0760 H   0  0  0  0  0  0  0  0  0  0  0  0
  135.2710  134.8380  150.5850 C   0  0  0  0  0  2  0  0  0  0  0  0
  134.6970  134.3030  154.3480 C   0  0  0  0  0  0  0  0  0  0  0  0
  134.6100  134.1700  152.9580 C   0  0  0  0  0  3  0  0  0  0  0  0
  135.3470  134.9940  152.0880 C   0  0  0  0  0  0  0  0  0  0  0  0
  136.2310  135.9290  152.6540 C   0  0  0  0  0  3  0  0  0  0  0  0
  136.3370  136.0700  154.0400 C   0  0  0  0  0  3  0  0  0  0  0  0
  135.5640  135.2670  154.8790 C   0  0  0  0  0  0  0  0  0  0  0  0
  135.6560  135.4170  156.2360 O   0  0  0  0  0  0  0  0  0  0  0  0
  135.3970  136.2220  156.6380 H   0  0  0  0  0  0  0  0  0  0  0  0
  134.2700  132.1480  155.2510 C   0  0  0  0  0  1  0  0  0  0  0  0
  133.9860  133.5430  155.2390 O   0  0  0  0  0  0  0  0  0  0  0  0
  1  3  1  0  0  0  0
  1 22  1  0  0  0  0
  2  1  1  0  0  0  0
  4  1  1  0  0  0  0
  5  4  1  0  0  0  0
  6  5  1  0  0  0  0
  7  6  1  0  0  0  0
  7 10  1  0  0  0  0
  8  7  1  0  0  0  0
  9  8  2  0  0  0  0
 11  8  1  0  0  0  0
 12 11  1  0  0  0  0
 13 12  2  0  0  0  0
 14 13  1  0  0  0  0
 15 14  2  0  0  0  0
 15 16  1  0  0  0  0
 16 18  1  0  0  0  0
 16 17  2  0  0  0  0
 17 12  1  0  0  0  0
 18 19  1  0  0  0  0
 20 15  1  0  0  0  0
 21 20  1  0  0  0  0
 23 22  1  0  0  0  0
 23 24  1  0  0  0  0
 24 25  1  0  0  0  0
 25 28  1  0  0  0  0
 26 27  2  0  0  0  0
 26 30  1  0  0  0  0
 28 26  1  0  0  0  0
 29 28  1  0  0  0  0
 30 33  1  0  0  0  0
 31 36  1  0  0  0  0
 31 40  1  0  0  0  0
 32 31  2  0  0  0  0
 33 34  2  0  0  0  0
 33 32  1  0  0  0  0
 34 35  1  0  0  0  0
 35 36  2  0  0  0  0
 36 37  1  0  0  0  0
 37 38  1  0  0  0  0
 40 39  1  0  0  0  0
M  END
>  <MODEL>
3

>  <REMARK>
 VINA RESULT:    -5.523      8.968     13.801
 INTER + INTRA:         -12.095
 INTER:                 -10.712
 INTRA:                  -1.383
 UNBOUND:                -1.407
  Name = CHEMBL2314237
  19 active torsions:
  status: ('A' for Active; 'I' for Inactive)
    1  A    between atoms: C_1  and  O_2
    2  A    between atoms: O_2  and  C_3
    3  A    between atoms: C_5  and  C_6
    4  A    between atoms: C_6  and  C_7
    5  A    between atoms: N_9  and  C_10
    6  A    between atoms: C_10  and  C_11
    7  A    between atoms: C_11  and  C_12
    8  A    between atoms: C_12  and  C_13
    9  A    between atoms: C_13  and  N_14
   10  A    between atoms: N_14  and  C_15
   11  A    between atoms: C_15  and  C_16
   12  A    between atoms: C_16  and  C_17
   13  A    between atoms: C_17  and  N_18
   14  A    between atoms: C_19  and  C_21
   15  A    between atoms: C_21  and  C_22
   16  A    between atoms: C_25  and  O_26
   17  A    between atoms: C_27  and  O_28
   18  A    between atoms: O_28  and  C_29
   19  A    between atoms: C_33  and  O_34
                            x       y       z     vdW  Elec       q    Type
                         _______ _______ _______ _____ _____    ______ ____

>  <TORSDO>
F 17

>  <SCORE>
-5.523

>  <RMSD_LB>
8.968

>  <RMSD_UB>
13.801

$$$$
CHEMBL2314237
 OpenBabel10162523503D

 40 41  0  0  0  0  0  0  0  0999 V2000
  143.6090  136.4770  145.1710 N   0  0  0  0  0  4  0  0  0  0  0  0
  142.9800  136.0330  144.5000 H   0  0  0  0  0  0  0  0  0  0  0  0
  144.4970  135.9770  145.1970 H   0  0  0  0  0  0  0  0  0  0  0  0
  143.8500  137.8590  144.7640 C   0  0  0  0  0  2  0  0  0  0  0  0
  145.3530  138.1290  144.6480 C   0  0  0  0  0  2  0  0  0  0  0  0
  145.9280  138.2710  146.0500 C   0  0  0  0  0  2  0  0  0  0  0  0
  145.6540  139.5340  146.7000 N   0  0  0  0  0  0  0  0  0  0  0  0
  146.3370  139.8240  147.8670 C   0  0  0  0  0  0  0  0  0  0  0  0
  147.1370  139.0330  148.3670 O   0  0  0  0  0  0  0  0  0  0  0  0
  145.0020  140.1690  146.3220 H   0  0  0  0  0  0  0  0  0  0  0  0
  146.0400  141.1690  148.5080 C   0  0  0  0  0  2  0  0  0  0  0  0
  146.1660  141.2160  150.0160 C   0  0  0  0  0  0  0  0  0  0  0  0
  146.9230  142.1950  150.6690 C   0  0  0  0  0  3  0  0  0  0  0  0
  147.0020  142.2210  152.0620 C   0  0  0  0  0  3  0  0  0  0  0  0
  146.3630  141.2430  152.8250 C   0  0  0  0  0  0  0  0  0  0  0  0
  145.6590  140.2080  152.2030 C   0  0  0  0  0  0  0  0  0  0  0  0
  145.5690  140.2090  150.7990 C   0  0  0  0  0  3  0  0  0  0  0  0
  145.0170  139.1540  152.8000 O   0  0  0  0  0  0  0  0  0  0  0  0
  143.7570  139.4050  153.4100 C   0  0  0  0  0  1  0  0  0  0  0  0
  146.4530  141.3320  154.1870 O   0  0  0  0  0  0  0  0  0  0  0  0
  147.0470  141.9420  154.5770 H   0  0  0  0  0  0  0  0  0  0  0  0
  143.0000  136.4440  146.5010 C   0  0  0  0  0  2  0  0  0  0  0  0
  143.3890  135.1470  147.1990 C   0  0  0  0  0  2  0  0  0  0  0  0
  144.8530  135.1820  147.6400 C   0  0  0  0  0  2  0  0  0  0  0  0
  144.9920  136.0340  148.8980 C   0  0  0  0  0  2  0  0  0  0  0  0
  143.3330  137.2910  150.1860 C   0  0  0  0  0  0  0  0  0  0  0  0
  143.5710  136.6360  151.1980 O   0  0  0  0  0  0  0  0  0  0  0  0
  143.9770  137.0640  148.9910 N   0  0  0  0  0  0  0  0  0  0  0  0
  143.7480  137.6010  148.1990 H   0  0  0  0  0  0  0  0  0  0  0  0
  142.3020  138.4090  150.1860 C   0  0  0  0  0  2  0  0  0  0  0  0
  138.8310  138.6480  148.5540 C   0  0  0  0  0  0  0  0  0  0  0  0
  140.0850  138.9970  149.0680 C   0  0  0  0  0  3  0  0  0  0  0  0
  140.9370  138.0400  149.6490 C   0  0  0  0  0  0  0  0  0  0  0  0
  140.5230  136.6960  149.6480 C   0  0  0  0  0  3  0  0  0  0  0  0
  139.2780  136.3300  149.1310 C   0  0  0  0  0  3  0  0  0  0  0  0
  138.4340  137.3060  148.5980 C   0  0  0  0  0  0  0  0  0  0  0  0
  137.2080  136.9490  148.1060 O   0  0  0  0  0  0  0  0  0  0  0  0
  136.4760  136.8650  148.6850 H   0  0  0  0  0  0  0  0  0  0  0  0
  137.3510  140.4770  148.8870 C   0  0  0  0  0  1  0  0  0  0  0  0
  137.9530  139.5420  147.9980 O   0  0  0  0  0  0  0  0  0  0  0  0
  1  3  1  0  0  0  0
  1 22  1  0  0  0  0
  2  1  1  0  0  0  0
  4  1  1  0  0  0  0
  5  4  1  0  0  0  0
  5  6  1  0  0  0  0
  6  7  1  0  0  0  0
  7  8  1  0  0  0  0
  8  9  2  0  0  0  0
  8 11  1  0  0  0  0
 10  7  1  0  0  0  0
 11 12  1  0  0  0  0
 12 13  2  0  0  0  0
 12 17  1  0  0  0  0
 13 14  1  0  0  0  0
 14 15  2  0  0  0  0
 15 20  1  0  0  0  0
 16 18  1  0  0  0  0
 16 15  1  0  0  0  0
 17 16  2  0  0  0  0
 18 19  1  0  0  0  0
 20 21  1  0  0  0  0
 22 23  1  0  0  0  0
 23 24  1  0  0  0  0
 24 25  1  0  0  0  0
 25 28  1  0  0  0  0
 26 30  1  0  0  0  0
 26 27  2  0  0  0  0
 28 26  1  0  0  0  0
 29 28  1  0  0  0  0
 31 36  2  0  0  0  0
 31 32  1  0  0  0  0
 32 33  2  0  0  0  0
 33 30  1  0  0  0  0
 34 33  1  0  0  0  0
 35 34  2  0  0  0  0
 36 35  1  0  0  0  0
 37 36  1  0  0  0  0
 37 38  1  0  0  0  0
 40 31  1  0  0  0  0
 40 39  1  0  0  0  0
M  END
>  <MODEL>
4

>  <REMARK>
 VINA RESULT:    -4.961      1.423      2.078
 INTER + INTRA:         -11.008
 INTER:                  -9.547
 INTRA:                  -1.462
 UNBOUND:                -1.407
  Name = CHEMBL2314237
  19 active torsions:
  status: ('A' for Active; 'I' for Inactive)
    1  A    between atoms: C_1  and  O_2
    2  A    between atoms: O_2  and  C_3
    3  A    between atoms: C_5  and  C_6
    4  A    between atoms: C_6  and  C_7
    5  A    between atoms: N_9  and  C_10
    6  A    between atoms: C_10  and  C_11
    7  A    between atoms: C_11  and  C_12
    8  A    between atoms: C_12  and  C_13
    9  A    between atoms: C_13  and  N_14
   10  A    between atoms: N_14  and  C_15
   11  A    between atoms: C_15  and  C_16
   12  A    between atoms: C_16  and  C_17
   13  A    between atoms: C_17  and  N_18
   14  A    between atoms: C_19  and  C_21
   15  A    between atoms: C_21  and  C_22
   16  A    between atoms: C_25  and  O_26
   17  A    between atoms: C_27  and  O_28
   18  A    between atoms: O_28  and  C_29
   19  A    between atoms: C_33  and  O_34
                            x       y       z     vdW  Elec       q    Type
                         _______ _______ _______ _____ _____    ______ ____

>  <TORSDO>
F 17

>  <SCORE>
-4.961

>  <RMSD_LB>
1.423

>  <RMSD_UB>
2.078

$$$$
CHEMBL2314237
 OpenBabel10162523503D

 40 41  0  0  0  0  0  0  0  0999 V2000
  145.8160  134.4330  143.6040 N   0  0  0  0  0  4  0  0  0  0  0  0
  146.5270  134.6110  144.3140 H   0  0  0  0  0  0  0  0  0  0  0  0
  146.0030  134.9990  142.7760 H   0  0  0  0  0  0  0  0  0  0  0  0
  145.8450  133.0210  143.2340 C   0  0  0  0  0  2  0  0  0  0  0  0
  146.1090  132.8650  141.7340 C   0  0  0  0  0  2  0  0  0  0  0  0
  144.7980  132.5080  141.0470 C   0  0  0  0  0  2  0  0  0  0  0  0
  144.2050  133.5730  140.2680 N   0  0  0  0  0  0  0  0  0  0  0  0
  143.6530  133.2480  139.0410 C   0  0  0  0  0  0  0  0  0  0  0  0
  143.6810  132.1000  138.5980 O   0  0  0  0  0  0  0  0  0  0  0  0
  144.1920  134.5000  140.6000 H   0  0  0  0  0  0  0  0  0  0  0  0
  143.0180  134.3880  138.2620 C   0  0  0  0  0  2  0  0  0  0  0  0
  141.5130  134.3210  138.1180 C   0  0  0  0  0  0  0  0  0  0  0  0
  140.8790  134.4440  136.8760 C   0  0  0  0  0  3  0  0  0  0  0  0
  139.4900  134.3580  136.7760 C   0  0  0  0  0  3  0  0  0  0  0  0
  138.7070  134.1940  137.9190 C   0  0  0  0  0  0  0  0  0  0  0  0
  139.3020  134.1420  139.1820 C   0  0  0  0  0  0  0  0  0  0  0  0
  140.7040  134.2060  139.2640 C   0  0  0  0  0  3  0  0  0  0  0  0
  138.6790  134.0290  140.3980 O   0  0  0  0  0  0  0  0  0  0  0  0
  138.4060  132.7200  140.8840 C   0  0  0  0  0  1  0  0  0  0  0  0
  137.3530  134.0910  137.7590 O   0  0  0  0  0  0  0  0  0  0  0  0
  136.9650  134.2760  136.9260 H   0  0  0  0  0  0  0  0  0  0  0  0
  144.5000  134.7860  144.1380 C   0  0  0  0  0  2  0  0  0  0  0  0
  144.4920  134.5590  145.6450 C   0  0  0  0  0  2  0  0  0  0  0  0
  145.7620  135.1160  146.2890 C   0  0  0  0  0  2  0  0  0  0  0  0
  145.4980  136.5210  146.8200 C   0  0  0  0  0  2  0  0  0  0  0  0
  147.0900  138.3780  146.7240 C   0  0  0  0  0  0  0  0  0  0  0  0
  147.2970  138.3090  147.9340 O   0  0  0  0  0  0  0  0  0  0  0  0
  146.2080  137.5430  146.0770 N   0  0  0  0  0  0  0  0  0  0  0  0
  146.0600  137.6400  145.1090 H   0  0  0  0  0  0  0  0  0  0  0  0
  147.8030  139.4000  145.8530 C   0  0  0  0  0  2  0  0  0  0  0  0
  151.0040  137.4280  145.0530 C   0  0  0  0  0  0  0  0  0  0  0  0
  149.8600  137.8960  145.7090 C   0  0  0  0  0  3  0  0  0  0  0  0
  149.0530  138.9060  145.1570 C   0  0  0  0  0  0  0  0  0  0  0  0
  149.3900  139.4030  143.8850 C   0  0  0  0  0  3  0  0  0  0  0  0
  150.5240  138.9410  143.2120 C   0  0  0  0  0  3  0  0  0  0  0  0
  151.3300  137.9660  143.8020 C   0  0  0  0  0  0  0  0  0  0  0  0
  152.4500  137.5250  143.1490 O   0  0  0  0  0  0  0  0  0  0  0  0
  152.7890  138.0070  142.4210 H   0  0  0  0  0  0  0  0  0  0  0  0
  151.9390  136.3850  146.9720 C   0  0  0  0  0  1  0  0  0  0  0  0
  151.8370  136.4610  145.5550 O   0  0  0  0  0  0  0  0  0  0  0  0
  1 22  1  0  0  0  0
  1  2  1  0  0  0  0
  3  1  1  0  0  0  0
  4  1  1  0  0  0  0
  5  4  1  0  0  0  0
  6  5  1  0  0  0  0
  7 10  1  0  0  0  0
  7  6  1  0  0  0  0
  8  7  1  0  0  0  0
  9  8  2  0  0  0  0
 11  8  1  0  0  0  0
 12 11  1  0  0  0  0
 12 17  1  0  0  0  0
 13 12  2  0  0  0  0
 14 13  1  0  0  0  0
 14 15  2  0  0  0  0
 15 16  1  0  0  0  0
 16 17  2  0  0  0  0
 16 18  1  0  0  0  0
 18 19  1  0  0  0  0
 20 15  1  0  0  0  0
 21 20  1  0  0  0  0
 22 23  1  0  0  0  0
 23 24  1  0  0  0  0
 24 25  1  0  0  0  0
 26 27  2  0  0  0  0
 28 26  1  0  0  0  0
 28 25  1  0  0  0  0
 29 28  1  0  0  0  0
 30 26  1  0  0  0  0
 31 40  1  0  0  0  0
 31 32  1  0  0  0  0
 33 32  2  0  0  0  0
 33 30  1  0  0  0  0
 34 33  1  0  0  0  0
 35 36  1  0  0  0  0
 35 34  2  0  0  0  0
 36 31  2  0  0  0  0
 37 36  1  0  0  0  0
 38 37  1  0  0  0  0
 40 39  1  0  0  0  0
M  END
>  <MODEL>
5

>  <REMARK>
 VINA RESULT:    -4.800      6.795     12.126
 INTER + INTRA:         -10.697
 INTER:                  -9.408
 INTRA:                  -1.289
 UNBOUND:                -1.407
  Name = CHEMBL2314237
  19 active torsions:
  status: ('A' for Active; 'I' for Inactive)
    1  A    between atoms: C_1  and  O_2
    2  A    between atoms: O_2  and  C_3
    3  A    between atoms: C_5  and  C_6
    4  A    between atoms: C_6  and  C_7
    5  A    between atoms: N_9  and  C_10
    6  A    between atoms: C_10  and  C_11
    7  A    between atoms: C_11  and  C_12
    8  A    between atoms: C_12  and  C_13
    9  A    between atoms: C_13  and  N_14
   10  A    between atoms: N_14  and  C_15
   11  A    between atoms: C_15  and  C_16
   12  A    between atoms: C_16  and  C_17
   13  A    between atoms: C_17  and  N_18
   14  A    between atoms: C_19  and  C_21
   15  A    between atoms: C_21  and  C_22
   16  A    between atoms: C_25  and  O_26
   17  A    between atoms: C_27  and  O_28
   18  A    between atoms: O_28  and  C_29
   19  A    between atoms: C_33  and  O_34
                            x       y       z     vdW  Elec       q    Type
                         _______ _______ _______ _____ _____    ______ ____

>  <TORSDO>
F 17

>  <SCORE>
-4.800

>  <RMSD_LB>
6.795

>  <RMSD_UB>
12.126

$$$$
CHEMBL2314237
 OpenBabel10162523503D

 40 41  0  0  0  0  0  0  0  0999 V2000
  120.8180  123.6160  141.4280 N   0  0  0  0  0  4  0  0  0  0  0  0
  120.3190  123.0130  142.0830 H   0  0  0  0  0  0  0  0  0  0  0  0
  121.4560  123.0590  140.8610 H   0  0  0  0  0  0  0  0  0  0  0  0
  119.8550  124.2780  140.5520 C   0  0  0  0  0  2  0  0  0  0  0  0
  120.3240  125.6970  140.2150 C   0  0  0  0  0  2  0  0  0  0  0  0
  121.3540  125.6120  139.0970 C   0  0  0  0  0  2  0  0  0  0  0  0
  120.8600  125.0730  137.8490 N   0  0  0  0  0  0  0  0  0  0  0  0
  120.8190  125.9130  136.7510 C   0  0  0  0  0  0  0  0  0  0  0  0
  121.1610  127.0940  136.8210 O   0  0  0  0  0  0  0  0  0  0  0  0
  120.5640  124.1360  137.7810 H   0  0  0  0  0  0  0  0  0  0  0  0
  120.3170  125.3060  135.4510 C   0  0  0  0  0  2  0  0  0  0  0  0
  121.3900  124.8800  134.4720 C   0  0  0  0  0  0  0  0  0  0  0  0
  121.6630  125.6070  133.3070 C   0  0  0  0  0  3  0  0  0  0  0  0
  122.6730  125.1980  132.4360 C   0  0  0  0  0  3  0  0  0  0  0  0
  123.3970  124.0320  132.6880 C   0  0  0  0  0  0  0  0  0  0  0  0
  123.1010  123.2430  133.8030 C   0  0  0  0  0  0  0  0  0  0  0  0
  122.0960  123.6810  134.6850 C   0  0  0  0  0  3  0  0  0  0  0  0
  123.6820  122.0560  134.1690 O   0  0  0  0  0  0  0  0  0  0  0  0
  123.0600  120.8530  133.7350 C   0  0  0  0  0  1  0  0  0  0  0  0
  124.3920  123.6930  131.8140 O   0  0  0  0  0  0  0  0  0  0  0  0
  125.0190  123.0380  132.0500 H   0  0  0  0  0  0  0  0  0  0  0  0
  121.5860  124.6120  142.1760 C   0  0  0  0  0  2  0  0  0  0  0  0
  121.1870  124.5550  143.6450 C   0  0  0  0  0  2  0  0  0  0  0  0
  120.4490  125.8290  144.0610 C   0  0  0  0  0  2  0  0  0  0  0  0
  120.1360  125.7790  145.5530 C   0  0  0  0  0  2  0  0  0  0  0  0
  119.5440  127.6590  147.0040 C   0  0  0  0  0  0  0  0  0  0  0  0
  118.3910  127.2500  147.1240 O   0  0  0  0  0  0  0  0  0  0  0  0
  120.4840  127.0080  146.2390 N   0  0  0  0  0  0  0  0  0  0  0  0
  121.3930  127.3760  146.1570 H   0  0  0  0  0  0  0  0  0  0  0  0
  120.0140  128.9260  147.7020 C   0  0  0  0  0  2  0  0  0  0  0  0
  121.4610  131.1790  144.9450 C   0  0  0  0  0  0  0  0  0  0  0  0
  120.5910  130.3560  145.6690 C   0  0  0  0  0  3  0  0  0  0  0  0
  120.9600  129.7980  146.9070 C   0  0  0  0  0  0  0  0  0  0  0  0
  122.2170  130.1370  147.4370 C   0  0  0  0  0  3  0  0  0  0  0  0
  123.0950  130.9640  146.7310 C   0  0  0  0  0  3  0  0  0  0  0  0
  122.7190  131.4710  145.4870 C   0  0  0  0  0  0  0  0  0  0  0  0
  123.5850  132.2690  144.7880 O   0  0  0  0  0  0  0  0  0  0  0  0
  124.2530  132.7450  145.2410 H   0  0  0  0  0  0  0  0  0  0  0  0
  120.4080  130.9210  142.8310 C   0  0  0  0  0  1  0  0  0  0  0  0
  121.1610  131.7310  143.7270 O   0  0  0  0  0  0  0  0  0  0  0  0
  1  2  1  0  0  0  0
  1 22  1  0  0  0  0
  3  1  1  0  0  0  0
  4  1  1  0  0  0  0
  5  4  1  0  0  0  0
  6  5  1  0  0  0  0
  7  6  1  0  0  0  0
  8  9  2  0  0  0  0
  8  7  1  0  0  0  0
 10  7  1  0  0  0  0
 11  8  1  0  0  0  0
 12 17  1  0  0  0  0
 12 11  1  0  0  0  0
 13 12  2  0  0  0  0
 14 15  2  0  0  0  0
 14 13  1  0  0  0  0
 15 16  1  0  0  0  0
 16 18  1  0  0  0  0
 16 17  2  0  0  0  0
 19 18  1  0  0  0  0
 20 21  1  0  0  0  0
 20 15  1  0  0  0  0
 22 23  1  0  0  0  0
 23 24  1  0  0  0  0
 24 25  1  0  0  0  0
 25 28  1  0  0  0  0
 26 27  2  0  0  0  0
 26 30  1  0  0  0  0
 28 26  1  0  0  0  0
 29 28  1  0  0  0  0
 31 36  2  0  0  0  0
 31 32  1  0  0  0  0
 32 33  2  0  0  0  0
 33 34  1  0  0  0  0
 33 30  1  0  0  0  0
 35 34  2  0  0  0  0
 36 35  1  0  0  0  0
 37 38  1  0  0  0  0
 37 36  1  0  0  0  0
 39 40  1  0  0  0  0
 40 31  1  0  0  0  0
M  END
>  <MODEL>
6

>  <REMARK>
 VINA RESULT:    -4.498     22.705     28.082
 INTER + INTRA:         -10.112
 INTER:                  -9.210
 INTRA:                  -0.903
 UNBOUND:                -1.407
  Name = CHEMBL2314237
  19 active torsions:
  status: ('A' for Active; 'I' for Inactive)
    1  A    between atoms: C_1  and  O_2
    2  A    between atoms: O_2  and  C_3
    3  A    between atoms: C_5  and  C_6
    4  A    between atoms: C_6  and  C_7
    5  A    between atoms: N_9  and  C_10
    6  A    between atoms: C_10  and  C_11
    7  A    between atoms: C_11  and  C_12
    8  A    between atoms: C_12  and  C_13
    9  A    between atoms: C_13  and  N_14
   10  A    between atoms: N_14  and  C_15
   11  A    between atoms: C_15  and  C_16
   12  A    between atoms: C_16  and  C_17
   13  A    between atoms: C_17  and  N_18
   14  A    between atoms: C_19  and  C_21
   15  A    between atoms: C_21  and  C_22
   16  A    between atoms: C_25  and  O_26
   17  A    between atoms: C_27  and  O_28
   18  A    between atoms: O_28  and  C_29
   19  A    between atoms: C_33  and  O_34
                            x       y       z     vdW  Elec       q    Type
                         _______ _______ _______ _____ _____    ______ ____

>  <TORSDO>
F 17

>  <SCORE>
-4.498

>  <RMSD_LB>
22.705

>  <RMSD_UB>
28.082

$$$$
CHEMBL2314237
 OpenBabel10162523503D

 40 41  0  0  0  0  0  0  0  0999 V2000
  155.1220  128.8420  152.2640 N   0  0  0  0  0  4  0  0  0  0  0  0
  156.0810  128.5060  152.1730 H   0  0  0  0  0  0  0  0  0  0  0  0
  154.5280  128.1010  152.6350 H   0  0  0  0  0  0  0  0  0  0  0  0
  155.0940  129.9790  153.1800 C   0  0  0  0  0  2  0  0  0  0  0  0
  154.2500  131.1160  152.5970 C   0  0  0  0  0  2  0  0  0  0  0  0
  153.0500  131.3430  153.5070 C   0  0  0  0  0  2  0  0  0  0  0  0
  153.1550  132.4860  154.3870 N   0  0  0  0  0  0  0  0  0  0  0  0
  153.4120  132.2520  155.7260 C   0  0  0  0  0  0  0  0  0  0  0  0
  153.5230  131.1120  156.1780 O   0  0  0  0  0  0  0  0  0  0  0  0
  153.0490  133.4030  154.0440 H   0  0  0  0  0  0  0  0  0  0  0  0
  153.5390  133.4780  156.6150 C   0  0  0  0  0  2  0  0  0  0  0  0
  152.2680  133.9110  157.3150 C   0  0  0  0  0  0  0  0  0  0  0  0
  151.5690  135.0640  156.9400 C   0  0  0  0  0  3  0  0  0  0  0  0
  150.3900  135.4240  157.5930 C   0  0  0  0  0  3  0  0  0  0  0  0
  149.9130  134.6650  158.6630 C   0  0  0  0  0  0  0  0  0  0  0  0
  150.6250  133.5490  159.1110 C   0  0  0  0  0  0  0  0  0  0  0  0
  151.7990  133.1850  158.4270 C   0  0  0  0  0  3  0  0  0  0  0  0
  150.3200  132.7280  160.1660 O   0  0  0  0  0  0  0  0  0  0  0  0
  150.7270  131.3680  160.0860 C   0  0  0  0  0  1  0  0  0  0  0  0
  148.7400  135.0500  159.2490 O   0  0  0  0  0  0  0  0  0  0  0  0
  147.9430  135.0360  158.7550 H   0  0  0  0  0  0  0  0  0  0  0  0
  154.6230  129.2430  150.9490 C   0  0  0  0  0  2  0  0  0  0  0  0
  154.1310  128.0110  150.2010 C   0  0  0  0  0  2  0  0  0  0  0  0
  152.8670  128.3260  149.3980 C   0  0  0  0  0  2  0  0  0  0  0  0
  152.0920  129.4510  150.0770 C   0  0  0  0  0  2  0  0  0  0  0  0
  151.6090  131.3220  148.5750 C   0  0  0  0  0  0  0  0  0  0  0  0
  152.7050  131.8310  148.8000 O   0  0  0  0  0  0  0  0  0  0  0  0
  151.2050  130.1470  149.1670 N   0  0  0  0  0  0  0  0  0  0  0  0
  150.3130  129.7790  148.9720 H   0  0  0  0  0  0  0  0  0  0  0  0
  150.6160  131.9620  147.6180 C   0  0  0  0  0  2  0  0  0  0  0  0
  151.8600  134.9700  145.5730 C   0  0  0  0  0  0  0  0  0  0  0  0
  151.5810  133.6590  145.9730 C   0  0  0  0  0  3  0  0  0  0  0  0
  150.9390  133.3780  147.1930 C   0  0  0  0  0  0  0  0  0  0  0  0
  150.5230  134.4620  147.9870 C   0  0  0  0  0  3  0  0  0  0  0  0
  150.7860  135.7780  147.5990 C   0  0  0  0  0  3  0  0  0  0  0  0
  151.4610  136.0260  146.4030 C   0  0  0  0  0  0  0  0  0  0  0  0
  151.7330  137.3150  146.0310 O   0  0  0  0  0  0  0  0  0  0  0  0
  151.1190  137.7920  145.5070 H   0  0  0  0  0  0  0  0  0  0  0  0
  152.1520  134.5390  143.2550 C   0  0  0  0  0  1  0  0  0  0  0  0
  152.5010  135.2990  144.4080 O   0  0  0  0  0  0  0  0  0  0  0  0
  1  3  1  0  0  0  0
  1  4  1  0  0  0  0
  2  1  1  0  0  0  0
  5  4  1  0  0  0  0
  5  6  1  0  0  0  0
  6  7  1  0  0  0  0
  7  8  1  0  0  0  0
  8  9  2  0  0  0  0
  8 11  1  0  0  0  0
 10  7  1  0  0  0  0
 11 12  1  0  0  0  0
 12 17  1  0  0  0  0
 13 12  2  0  0  0  0
 13 14  1  0  0  0  0
 14 15  2  0  0  0  0
 15 16  1  0  0  0  0
 15 20  1  0  0  0  0
 16 18  1  0  0  0  0
 17 16  2  0  0  0  0
 19 18  1  0  0  0  0
 21 20  1  0  0  0  0
 22  1  1  0  0  0  0
 23 22  1  0  0  0  0
 24 25  1  0  0  0  0
 24 23  1  0  0  0  0
 26 27  2  0  0  0  0
 26 28  1  0  0  0  0
 28 25  1  0  0  0  0
 29 28  1  0  0  0  0
 30 26  1  0  0  0  0
 31 32  2  0  0  0  0
 31 36  1  0  0  0  0
 32 33  1  0  0  0  0
 33 30  1  0  0  0  0
 33 34  2  0  0  0  0
 35 34  1  0  0  0  0
 36 35  2  0  0  0  0
 37 36  1  0  0  0  0
 38 37  1  0  0  0  0
 39 40  1  0  0  0  0
 40 31  1  0  0  0  0
M  END
>  <MODEL>
7

>  <REMARK>
 VINA RESULT:    -4.494      9.135     11.943
 INTER + INTRA:         -10.104
 INTER:                  -8.832
 INTRA:                  -1.272
 UNBOUND:                -1.407
  Name = CHEMBL2314237
  19 active torsions:
  status: ('A' for Active; 'I' for Inactive)
    1  A    between atoms: C_1  and  O_2
    2  A    between atoms: O_2  and  C_3
    3  A    between atoms: C_5  and  C_6
    4  A    between atoms: C_6  and  C_7
    5  A    between atoms: N_9  and  C_10
    6  A    between atoms: C_10  and  C_11
    7  A    between atoms: C_11  and  C_12
    8  A    between atoms: C_12  and  C_13
    9  A    between atoms: C_13  and  N_14
   10  A    between atoms: N_14  and  C_15
   11  A    between atoms: C_15  and  C_16
   12  A    between atoms: C_16  and  C_17
   13  A    between atoms: C_17  and  N_18
   14  A    between atoms: C_19  and  C_21
   15  A    between atoms: C_21  and  C_22
   16  A    between atoms: C_25  and  O_26
   17  A    between atoms: C_27  and  O_28
   18  A    between atoms: O_28  and  C_29
   19  A    between atoms: C_33  and  O_34
                            x       y       z     vdW  Elec       q    Type
                         _______ _______ _______ _____ _____    ______ ____

>  <TORSDO>
F 17

>  <SCORE>
-4.494

>  <RMSD_LB>
9.135

>  <RMSD_UB>
11.943

$$$$
CHEMBL2314237
 OpenBabel10162523503D

 40 41  0  0  0  0  0  0  0  0999 V2000
  136.2220  137.7010  144.0730 N   0  0  0  0  0  4  0  0  0  0  0  0
  135.5100  137.5300  143.3610 H   0  0  0  0  0  0  0  0  0  0  0  0
  136.7570  136.8490  144.2400 H   0  0  0  0  0  0  0  0  0  0  0  0
  137.1260  138.7500  143.6090 C   0  0  0  0  0  2  0  0  0  0  0  0
  136.3360  139.9990  143.2070 C   0  0  0  0  0  2  0  0  0  0  0  0
  137.3100  141.0270  142.6490 C   0  0  0  0  0  2  0  0  0  0  0  0
  137.1190  141.3590  141.2540 N   0  0  0  0  0  0  0  0  0  0  0  0
  138.1770  141.1520  140.3870 C   0  0  0  0  0  0  0  0  0  0  0  0
  139.2640  140.7250  140.7770 O   0  0  0  0  0  0  0  0  0  0  0  0
  136.2610  141.7190  140.9300 H   0  0  0  0  0  0  0  0  0  0  0  0
  137.9310  141.4890  138.9260 C   0  0  0  0  0  2  0  0  0  0  0  0
  137.8750  142.9660  138.5970 C   0  0  0  0  0  0  0  0  0  0  0  0
  139.0180  143.7740  138.6100 C   0  0  0  0  0  3  0  0  0  0  0  0
  138.9350  145.1280  138.2830 C   0  0  0  0  0  3  0  0  0  0  0  0
  137.7020  145.7090  137.9820 C   0  0  0  0  0  0  0  0  0  0  0  0
  136.5310  144.9480  138.0320 C   0  0  0  0  0  0  0  0  0  0  0  0
  136.6340  143.5790  138.3400 C   0  0  0  0  0  3  0  0  0  0  0  0
  135.2460  145.3710  137.8090 O   0  0  0  0  0  0  0  0  0  0  0  0
  134.5730  144.8680  136.6610 C   0  0  0  0  0  1  0  0  0  0  0  0
  137.6830  147.0330  137.6430 O   0  0  0  0  0  0  0  0  0  0  0  0
  138.0330  147.6710  138.2330 H   0  0  0  0  0  0  0  0  0  0  0  0
  135.5730  138.1110  145.3180 C   0  0  0  0  0  2  0  0  0  0  0  0
  134.1180  137.6610  145.2980 C   0  0  0  0  0  2  0  0  0  0  0  0
  133.6960  137.1130  146.6620 C   0  0  0  0  0  2  0  0  0  0  0  0
  133.6820  135.5880  146.6240 C   0  0  0  0  0  2  0  0  0  0  0  0
  135.9230  134.6270  146.8380 C   0  0  0  0  0  0  0  0  0  0  0  0
  136.1320  134.7570  145.6330 O   0  0  0  0  0  0  0  0  0  0  0  0
  134.7360  134.9980  147.4260 N   0  0  0  0  0  0  0  0  0  0  0  0
  134.6020  134.8650  148.3910 H   0  0  0  0  0  0  0  0  0  0  0  0
  136.9740  134.0410  147.7680 C   0  0  0  0  0  2  0  0  0  0  0  0
  137.9840  136.6680  150.3870 C   0  0  0  0  0  0  0  0  0  0  0  0
  137.2290  135.7520  149.6450 C   0  0  0  0  0  3  0  0  0  0  0  0
  137.7810  135.0480  148.5590 C   0  0  0  0  0  0  0  0  0  0  0  0
  139.1420  135.2410  148.2670 C   0  0  0  0  0  3  0  0  0  0  0  0
  139.9130  136.1450  149.0040 C   0  0  0  0  0  3  0  0  0  0  0  0
  139.3290  136.8610  150.0500 C   0  0  0  0  0  0  0  0  0  0  0  0
  140.0800  137.7590  150.7600 O   0  0  0  0  0  0  0  0  0  0  0  0
  140.4340  138.5150  150.3350 H   0  0  0  0  0  0  0  0  0  0  0  0
  136.8530  136.6590  152.4760 C   0  0  0  0  0  1  0  0  0  0  0  0
  137.4910  137.3950  151.4390 O   0  0  0  0  0  0  0  0  0  0  0  0
  1  3  1  0  0  0  0
  1 22  1  0  0  0  0
  2  1  1  0  0  0  0
  4  1  1  0  0  0  0
  5  4  1  0  0  0  0
  6  5  1  0  0  0  0
  7  6  1  0  0  0  0
  8  9  2  0  0  0  0
  8  7  1  0  0  0  0
 10  7  1  0  0  0  0
 11  8  1  0  0  0  0
 12 13  1  0  0  0  0
 12 11  1  0  0  0  0
 14 13  2  0  0  0  0
 15 16  2  0  0  0  0
 15 14  1  0  0  0  0
 16 17  1  0  0  0  0
 17 12  2  0  0  0  0
 18 16  1  0  0  0  0
 19 18  1  0  0  0  0
 20 15  1  0  0  0  0
 20 21  1  0  0  0  0
 23 22  1  0  0  0  0
 23 24  1  0  0  0  0
 25 24  1  0  0  0  0
 25 28  1  0  0  0  0
 26 28  1  0  0  0  0
 26 30  1  0  0  0  0
 27 26  2  0  0  0  0
 28 29  1  0  0  0  0
 30 33  1  0  0  0  0
 31 40  1  0  0  0  0
 32 31  2  0  0  0  0
 33 32  1  0  0  0  0
 34 33  2  0  0  0  0
 34 35  1  0  0  0  0
 35 36  2  0  0  0  0
 36 31  1  0  0  0  0
 36 37  1  0  0  0  0
 38 37  1  0  0  0  0
 40 39  1  0  0  0  0
M  END
>  <MODEL>
8

>  <REMARK>
 VINA RESULT:    -4.336      7.635     11.757
 INTER + INTRA:          -9.799
 INTER:                  -8.417
 INTRA:                  -1.382
 UNBOUND:                -1.407
  Name = CHEMBL2314237
  19 active torsions:
  status: ('A' for Active; 'I' for Inactive)
    1  A    between atoms: C_1  and  O_2
    2  A    between atoms: O_2  and  C_3
    3  A    between atoms: C_5  and  C_6
    4  A    between atoms: C_6  and  C_7
    5  A    between atoms: N_9  and  C_10
    6  A    between atoms: C_10  and  C_11
    7  A    between atoms: C_11  and  C_12
    8  A    between atoms: C_12  and  C_13
    9  A    between atoms: C_13  and  N_14
   10  A    between atoms: N_14  and  C_15
   11  A    between atoms: C_15  and  C_16
   12  A    between atoms: C_16  and  C_17
   13  A    between atoms: C_17  and  N_18
   14  A    between atoms: C_19  and  C_21
   15  A    between atoms: C_21  and  C_22
   16  A    between atoms: C_25  and  O_26
   17  A    between atoms: C_27  and  O_28
   18  A    between atoms: O_28  and  C_29
   19  A    between atoms: C_33  and  O_34
                            x       y       z     vdW  Elec       q    Type
                         _______ _______ _______ _____ _____    ______ ____

>  <TORSDO>
F 17

>  <SCORE>
-4.336

>  <RMSD_LB>
7.635

>  <RMSD_UB>
11.757

$$$$
CHEMBL2314237
 OpenBabel10162523503D

 40 41  0  0  0  0  0  0  0  0999 V2000
  136.2370  137.7100  144.0630 N   0  0  0  0  0  4  0  0  0  0  0  0
  135.5220  137.5860  143.3450 H   0  0  0  0  0  0  0  0  0  0  0  0
  136.7440  136.8360  144.2030 H   0  0  0  0  0  0  0  0  0  0  0  0
  137.1760  138.7440  143.6360 C   0  0  0  0  0  2  0  0  0  0  0  0
  136.4360  140.0520  143.3430 C   0  0  0  0  0  2  0  0  0  0  0  0
  137.4520  141.0900  142.8870 C   0  0  0  0  0  2  0  0  0  0  0  0
  137.2190  141.6390  141.5690 N   0  0  0  0  0  0  0  0  0  0  0  0
  137.2310  143.0150  141.4280 C   0  0  0  0  0  0  0  0  0  0  0  0
  137.4050  143.7670  142.3880 O   0  0  0  0  0  0  0  0  0  0  0  0
  137.0590  141.0510  140.7950 H   0  0  0  0  0  0  0  0  0  0  0  0
  137.0060  143.5540  140.0250 C   0  0  0  0  0  2  0  0  0  0  0  0
  135.5840  143.4680  139.5130 C   0  0  0  0  0  0  0  0  0  0  0  0
  134.5760  144.3230  139.9730 C   0  0  0  0  0  3  0  0  0  0  0  0
  133.2790  144.2310  139.4650 C   0  0  0  0  0  3  0  0  0  0  0  0
  132.9560  143.2530  138.5230 C   0  0  0  0  0  0  0  0  0  0  0  0
  133.9200  142.3360  138.0970 C   0  0  0  0  0  0  0  0  0  0  0  0
  135.2280  142.4570  138.6000 C   0  0  0  0  0  3  0  0  0  0  0  0
  133.7580  141.2960  137.2180 O   0  0  0  0  0  0  0  0  0  0  0  0
  134.4350  141.3730  135.9690 C   0  0  0  0  0  1  0  0  0  0  0  0
  131.6770  143.2250  138.0420 O   0  0  0  0  0  0  0  0  0  0  0  0
  130.9560  143.1370  138.6340 H   0  0  0  0  0  0  0  0  0  0  0  0
  135.5980  138.1000  145.3200 C   0  0  0  0  0  2  0  0  0  0  0  0
  134.1400  137.6590  145.3000 C   0  0  0  0  0  2  0  0  0  0  0  0
  133.7290  137.0680  146.6490 C   0  0  0  0  0  2  0  0  0  0  0  0
  133.7470  135.5440  146.5710 C   0  0  0  0  0  2  0  0  0  0  0  0
  136.0070  134.6180  146.7380 C   0  0  0  0  0  0  0  0  0  0  0  0
  136.1980  134.7760  145.5340 O   0  0  0  0  0  0  0  0  0  0  0  0
  134.8210  134.9570  147.3480 N   0  0  0  0  0  0  0  0  0  0  0  0
  134.7020  134.8020  148.3130 H   0  0  0  0  0  0  0  0  0  0  0  0
  137.0790  134.0320  147.6440 C   0  0  0  0  0  2  0  0  0  0  0  0
  138.1150  136.6860  150.2240 C   0  0  0  0  0  0  0  0  0  0  0  0
  137.3500  135.7700  149.4920 C   0  0  0  0  0  3  0  0  0  0  0  0
  137.8980  135.0380  148.4230 C   0  0  0  0  0  0  0  0  0  0  0  0
  139.2650  135.2020  148.1390 C   0  0  0  0  0  3  0  0  0  0  0  0
  140.0450  136.1050  148.8650 C   0  0  0  0  0  3  0  0  0  0  0  0
  139.4670  136.8490  149.8940 C   0  0  0  0  0  0  0  0  0  0  0  0
  140.2280  137.7450  150.5950 O   0  0  0  0  0  0  0  0  0  0  0  0
  140.5980  138.4880  150.1600 H   0  0  0  0  0  0  0  0  0  0  0  0
  136.9520  136.7360  152.2950 C   0  0  0  0  0  1  0  0  0  0  0  0
  137.6280  137.4400  151.2590 O   0  0  0  0  0  0  0  0  0  0  0  0
  1  3  1  0  0  0  0
  1 22  1  0  0  0  0
  2  1  1  0  0  0  0
  4  1  1  0  0  0  0
  5  4  1  0  0  0  0
  6  5  1  0  0  0  0
  7  6  1  0  0  0  0
  8  7  1  0  0  0  0
  8  9  2  0  0  0  0
 10  7  1  0  0  0  0
 11  8  1  0  0  0  0
 12 13  1  0  0  0  0
 12 11  1  0  0  0  0
 14 13  2  0  0  0  0
 15 14  1  0  0  0  0
 16 15  2  0  0  0  0
 16 17  1  0  0  0  0
 17 12  2  0  0  0  0
 18 16  1  0  0  0  0
 19 18  1  0  0  0  0
 20 15  1  0  0  0  0
 20 21  1  0  0  0  0
 23 22  1  0  0  0  0
 23 24  1  0  0  0  0
 25 24  1  0  0  0  0
 25 28  1  0  0  0  0
 26 28  1  0  0  0  0
 26 30  1  0  0  0  0
 27 26  2  0  0  0  0
 28 29  1  0  0  0  0
 30 33  1  0  0  0  0
 31 40  1  0  0  0  0
 32 31  2  0  0  0  0
 33 32  1  0  0  0  0
 34 33  2  0  0  0  0
 34 35  1  0  0  0  0
 35 36  2  0  0  0  0
 36 31  1  0  0  0  0
 36 37  1  0  0  0  0
 38 37  1  0  0  0  0
 40 39  1  0  0  0  0
M  END
>  <MODEL>
9

>  <REMARK>
 VINA RESULT:    -4.261      7.877     12.232
 INTER + INTRA:          -9.653
 INTER:                  -8.246
 INTRA:                  -1.407
 UNBOUND:                -1.407
  Name = CHEMBL2314237
  19 active torsions:
  status: ('A' for Active; 'I' for Inactive)
    1  A    between atoms: C_1  and  O_2
    2  A    between atoms: O_2  and  C_3
    3  A    between atoms: C_5  and  C_6
    4  A    between atoms: C_6  and  C_7
    5  A    between atoms: N_9  and  C_10
    6  A    between atoms: C_10  and  C_11
    7  A    between atoms: C_11  and  C_12
    8  A    between atoms: C_12  and  C_13
    9  A    between atoms: C_13  and  N_14
   10  A    between atoms: N_14  and  C_15
   11  A    between atoms: C_15  and  C_16
   12  A    between atoms: C_16  and  C_17
   13  A    between atoms: C_17  and  N_18
   14  A    between atoms: C_19  and  C_21
   15  A    between atoms: C_21  and  C_22
   16  A    between atoms: C_25  and  O_26
   17  A    between atoms: C_27  and  O_28
   18  A    between atoms: O_28  and  C_29
   19  A    between atoms: C_33  and  O_34
                            x       y       z     vdW  Elec       q    Type
                         _______ _______ _______ _____ _____    ______ ____

>  <TORSDO>
F 17

>  <SCORE>
-4.261

>  <RMSD_LB>
7.877

>  <RMSD_UB>
12.232

$$$$
