CHEMBL5428602
 OpenBabel10162523333D

 29 31  0  0  0  0  0  0  0  0999 V2000
  138.3640  137.6350  154.4830 N   0  0  0  0  0  0  0  0  0  0  0  0
  139.3190  138.5150  154.0350 C   0  0  0  0  0  0  0  0  0  0  0  0
  139.4880  139.6240  154.5380 O   0  0  0  0  0  0  0  0  0  0  0  0
  138.2530  136.7690  154.0290 H   0  0  0  0  0  0  0  0  0  0  0  0
  137.5140  137.9590  155.6100 C   0  0  0  0  0  2  0  0  0  0  0  0
  134.7680  135.2990  155.3240 C   0  0  0  0  0  0  0  0  0  0  0  0
  135.6810  136.3100  154.9950 C   0  0  0  0  0  3  0  0  0  0  0  0
  136.5510  136.8490  155.9630 C   0  0  0  0  0  0  0  0  0  0  0  0
  136.4970  136.3490  157.2710 C   0  0  0  0  0  3  0  0  0  0  0  0
  135.5910  135.3460  157.6130 C   0  0  0  0  0  3  0  0  0  0  0  0
  134.7330  134.8290  156.6440 C   0  0  0  0  0  0  0  0  0  0  0  0
  134.4040  133.7480  153.5530 C   0  0  0  0  0  1  0  0  0  0  0  0
  133.8850  134.7270  154.4450 O   0  0  0  0  0  0  0  0  0  0  0  0
  133.8410  133.8420  156.9850 O   0  0  0  0  0  0  0  0  0  0  0  0
  133.2970  133.9430  157.7410 H   0  0  0  0  0  0  0  0  0  0  0  0
  140.1560  137.9820  152.8850 C   0  0  0  0  0  2  0  0  0  0  0  0
  139.5150  138.3380  151.5380 C   0  0  0  0  0  2  0  0  0  0  0  0
  139.8590  137.3290  150.4450 C   0  0  0  0  0  2  0  0  0  0  0  0
  138.6610  136.5540  149.9760 C   0  0  0  0  0  0  0  0  0  0  0  0
  138.5730  135.6980  148.8990 C   0  0  0  0  0  3  0  0  0  0  0  0
  137.2900  135.0930  148.7870 C   0  0  0  0  0  3  0  0  0  0  0  0
  136.4170  135.4940  149.7830 C   0  0  0  0  0  0  0  0  0  0  0  0
  137.1820  136.6240  150.8310 S   0  0  0  0  0  0  0  0  0  0  0  0
  135.0350  135.0420  150.0170 C   0  0  0  0  0  0  0  0  0  0  0  0
  134.0750  135.9510  150.4910 C   0  0  0  0  0  3  0  0  0  0  0  0
  132.7570  135.5510  150.7300 C   0  0  0  0  0  3  0  0  0  0  0  0
  132.3820  134.2320  150.5020 C   0  0  0  0  0  3  0  0  0  0  0  0
  133.3180  133.3140  150.0360 C   0  0  0  0  0  3  0  0  0  0  0  0
  134.6370  133.7140  149.7980 C   0  0  0  0  0  3  0  0  0  0  0  0
  1  5  1  0  0  0  0
  2  1  1  0  0  0  0
  2  3  2  0  0  0  0
  4  1  1  0  0  0  0
  5  8  1  0  0  0  0
  6 11  1  0  0  0  0
  7  6  2  0  0  0  0
  7  8  1  0  0  0  0
  8  9  2  0  0  0  0
  9 10  1  0  0  0  0
 11 14  1  0  0  0  0
 11 10  2  0  0  0  0
 12 13  1  0  0  0  0
 13  6  1  0  0  0  0
 14 15  1  0  0  0  0
 16  2  1  0  0  0  0
 17 16  1  0  0  0  0
 18 17  1  0  0  0  0
 19 18  1  0  0  0  0
 19 23  1  0  0  0  0
 20 19  2  0  0  0  0
 21 20  1  0  0  0  0
 21 22  2  0  0  0  0
 22 24  1  0  0  0  0
 22 23  1  0  0  0  0
 24 25  1  0  0  0  0
 25 26  2  0  0  0  0
 27 26  1  0  0  0  0
 28 27  2  0  0  0  0
 29 24  2  0  0  0  0
 29 28  1  0  0  0  0
M  END
>  <MODEL>
1

>  <REMARK>
 VINA RESULT:    -8.294      0.000      0.000
 INTER + INTRA:         -12.859
 INTER:                 -11.508
 INTRA:                  -1.351
 UNBOUND:                -0.443
  Name = CHEMBL5428602
  10 active torsions:
  status: ('A' for Active; 'I' for Inactive)
    1  A    between atoms: C_1  and  O_2
    2  A    between atoms: O_2  and  C_3
    3  A    between atoms: C_5  and  C_6
    4  A    between atoms: C_6  and  N_7
    5  A    between atoms: C_8  and  C_10
    6  A    between atoms: C_10  and  C_11
    7  A    between atoms: C_11  and  C_12
    8  A    between atoms: C_12  and  C_13
    9  A    between atoms: C_16  and  C_17
   10  A    between atoms: C_26  and  O_27
                            x       y       z     vdW  Elec       q    Type
                         _______ _______ _______ _____ _____    ______ ____

>  <TORSDO>
F 9

>  <SCORE>
-8.294

>  <RMSD_LB>
0.000

>  <RMSD_UB>
0.000

$$$$
CHEMBL5428602
 OpenBabel10162523333D

 29 31  0  0  0  0  0  0  0  0999 V2000
  137.6480  136.9730  154.2830 N   0  0  0  0  0  0  0  0  0  0  0  0
  136.8270  137.1570  155.3700 C   0  0  0  0  0  0  0  0  0  0  0  0
  136.5860  138.2680  155.8400 O   0  0  0  0  0  0  0  0  0  0  0  0
  137.8260  136.0600  153.9620 H   0  0  0  0  0  0  0  0  0  0  0  0
  138.2560  138.0970  153.6030 C   0  0  0  0  0  2  0  0  0  0  0  0
  138.5190  137.0160  149.9350 C   0  0  0  0  0  0  0  0  0  0  0  0
  137.9890  137.3800  151.1800 C   0  0  0  0  0  3  0  0  0  0  0  0
  138.8300  137.7310  152.2540 C   0  0  0  0  0  0  0  0  0  0  0  0
  140.2170  137.7200  152.0550 C   0  0  0  0  0  3  0  0  0  0  0  0
  140.7580  137.3550  150.8230 C   0  0  0  0  0  3  0  0  0  0  0  0
  139.9100  137.0040  149.7730 C   0  0  0  0  0  0  0  0  0  0  0  0
  137.0640  137.6910  148.1730 C   0  0  0  0  0  1  0  0  0  0  0  0
  137.7710  136.6550  148.8430 O   0  0  0  0  0  0  0  0  0  0  0  0
  140.4460  136.6450  148.5610 O   0  0  0  0  0  0  0  0  0  0  0  0
  140.0400  136.9300  147.7660 H   0  0  0  0  0  0  0  0  0  0  0  0
  136.2310  135.8720  155.9170 C   0  0  0  0  0  2  0  0  0  0  0  0
  134.8060  135.6680  155.3890 C   0  0  0  0  0  2  0  0  0  0  0  0
  134.6650  134.3850  154.5730 C   0  0  0  0  0  2  0  0  0  0  0  0
  134.8770  134.6100  153.1030 C   0  0  0  0  0  0  0  0  0  0  0  0
  135.9590  134.2360  152.3350 C   0  0  0  0  0  3  0  0  0  0  0  0
  135.7920  134.5670  150.9600 C   0  0  0  0  0  3  0  0  0  0  0  0
  134.5820  135.1860  150.6990 C   0  0  0  0  0  0  0  0  0  0  0  0
  133.6770  135.3700  152.1500 S   0  0  0  0  0  0  0  0  0  0  0  0
  134.0450  135.6190  149.3980 C   0  0  0  0  0  0  0  0  0  0  0  0
  133.1510  136.7010  149.3370 C   0  0  0  0  0  3  0  0  0  0  0  0
  132.6180  137.1310  148.1190 C   0  0  0  0  0  3  0  0  0  0  0  0
  132.9700  136.4810  146.9420 C   0  0  0  0  0  3  0  0  0  0  0  0
  133.8510  135.4040  146.9790 C   0  0  0  0  0  3  0  0  0  0  0  0
  134.3840  134.9740  148.1980 C   0  0  0  0  0  3  0  0  0  0  0  0
  1  2  1  0  0  0  0
  2  3  2  0  0  0  0
  2 16  1  0  0  0  0
  4  1  1  0  0  0  0
  5  1  1  0  0  0  0
  6  7  1  0  0  0  0
  7  8  2  0  0  0  0
  8  5  1  0  0  0  0
  9  8  1  0  0  0  0
 10  9  2  0  0  0  0
 11  6  2  0  0  0  0
 11 10  1  0  0  0  0
 12 13  1  0  0  0  0
 13  6  1  0  0  0  0
 14 11  1  0  0  0  0
 15 14  1  0  0  0  0
 17 16  1  0  0  0  0
 18 17  1  0  0  0  0
 19 18  1  0  0  0  0
 20 19  2  0  0  0  0
 21 20  1  0  0  0  0
 22 21  2  0  0  0  0
 22 23  1  0  0  0  0
 23 19  1  0  0  0  0
 24 22  1  0  0  0  0
 25 24  1  0  0  0  0
 26 25  2  0  0  0  0
 27 28  2  0  0  0  0
 27 26  1  0  0  0  0
 28 29  1  0  0  0  0
 29 24  2  0  0  0  0
M  END
>  <MODEL>
2

>  <REMARK>
 VINA RESULT:    -8.274      2.622      5.405
 INTER + INTRA:         -12.829
 INTER:                 -11.144
 INTRA:                  -1.685
 UNBOUND:                -0.443
  Name = CHEMBL5428602
  10 active torsions:
  status: ('A' for Active; 'I' for Inactive)
    1  A    between atoms: C_1  and  O_2
    2  A    between atoms: O_2  and  C_3
    3  A    between atoms: C_5  and  C_6
    4  A    between atoms: C_6  and  N_7
    5  A    between atoms: C_8  and  C_10
    6  A    between atoms: C_10  and  C_11
    7  A    between atoms: C_11  and  C_12
    8  A    between atoms: C_12  and  C_13
    9  A    between atoms: C_16  and  C_17
   10  A    between atoms: C_26  and  O_27
                            x       y       z     vdW  Elec       q    Type
                         _______ _______ _______ _____ _____    ______ ____

>  <TORSDO>
F 9

>  <SCORE>
-8.274

>  <RMSD_LB>
2.622

>  <RMSD_UB>
5.405

$$$$
CHEMBL5428602
 OpenBabel10162523333D

 29 31  0  0  0  0  0  0  0  0999 V2000
  139.2320  138.1120  154.9480 N   0  0  0  0  0  0  0  0  0  0  0  0
  138.0230  138.1880  155.5950 C   0  0  0  0  0  0  0  0  0  0  0  0
  137.1230  138.9450  155.2340 O   0  0  0  0  0  0  0  0  0  0  0  0
  139.9270  137.5070  155.2930 H   0  0  0  0  0  0  0  0  0  0  0  0
  139.5050  138.9070  153.7690 C   0  0  0  0  0  2  0  0  0  0  0  0
  141.0000  137.1540  150.7050 C   0  0  0  0  0  0  0  0  0  0  0  0
  140.0910  137.7820  151.5670 C   0  0  0  0  0  3  0  0  0  0  0  0
  140.4950  138.2550  152.8320 C   0  0  0  0  0  0  0  0  0  0  0  0
  141.8330  138.0940  153.2150 C   0  0  0  0  0  3  0  0  0  0  0  0
  142.7460  137.4660  152.3690 C   0  0  0  0  0  3  0  0  0  0  0  0
  142.3280  136.9990  151.1240 C   0  0  0  0  0  0  0  0  0  0  0  0
  139.3090  136.4520  149.1810 C   0  0  0  0  0  1  0  0  0  0  0  0
  140.6870  136.6620  149.4640 O   0  0  0  0  0  0  0  0  0  0  0  0
  143.2300  136.3820  150.2940 O   0  0  0  0  0  0  0  0  0  0  0  0
  143.8330  135.7540  150.6410 H   0  0  0  0  0  0  0  0  0  0  0  0
  137.8940  137.2400  156.7740 C   0  0  0  0  0  2  0  0  0  0  0  0
  137.3180  135.8920  156.3250 C   0  0  0  0  0  2  0  0  0  0  0  0
  135.7940  135.8500  156.4170 C   0  0  0  0  0  2  0  0  0  0  0  0
  135.1480  135.4600  155.1190 C   0  0  0  0  0  0  0  0  0  0  0  0
  133.8100  135.5020  154.7910 C   0  0  0  0  0  3  0  0  0  0  0  0
  133.5660  135.1080  153.4450 C   0  0  0  0  0  3  0  0  0  0  0  0
  134.7220  134.7740  152.7630 C   0  0  0  0  0  0  0  0  0  0  0  0
  136.0910  134.9300  153.7940 S   0  0  0  0  0  0  0  0  0  0  0  0
  134.8640  134.3740  151.3540 C   0  0  0  0  0  0  0  0  0  0  0  0
  133.9660  133.4480  150.7970 C   0  0  0  0  0  3  0  0  0  0  0  0
  134.0800  133.0430  149.4650 C   0  0  0  0  0  3  0  0  0  0  0  0
  135.0970  133.5560  148.6690 C   0  0  0  0  0  3  0  0  0  0  0  0
  136.0000  134.4720  149.2010 C   0  0  0  0  0  3  0  0  0  0  0  0
  135.8870  134.8770  150.5340 C   0  0  0  0  0  3  0  0  0  0  0  0
  1  4  1  0  0  0  0
  1  2  1  0  0  0  0
  2 16  1  0  0  0  0
  3  2  2  0  0  0  0
  5  1  1  0  0  0  0
  6 11  2  0  0  0  0
  6  7  1  0  0  0  0
  7  8  2  0  0  0  0
  8  9  1  0  0  0  0
  8  5  1  0  0  0  0
 10  9  2  0  0  0  0
 11 10  1  0  0  0  0
 12 13  1  0  0  0  0
 13  6  1  0  0  0  0
 14 15  1  0  0  0  0
 14 11  1  0  0  0  0
 17 18  1  0  0  0  0
 17 16  1  0  0  0  0
 19 18  1  0  0  0  0
 20 19  2  0  0  0  0
 21 20  1  0  0  0  0
 22 21  2  0  0  0  0
 22 23  1  0  0  0  0
 23 19  1  0  0  0  0
 24 22  1  0  0  0  0
 25 24  1  0  0  0  0
 26 25  2  0  0  0  0
 27 28  2  0  0  0  0
 27 26  1  0  0  0  0
 28 29  1  0  0  0  0
 29 24  2  0  0  0  0
M  END
>  <MODEL>
3

>  <REMARK>
 VINA RESULT:    -8.018      2.268      5.908
 INTER + INTRA:         -12.446
 INTER:                 -11.334
 INTRA:                  -1.112
 UNBOUND:                -0.443
  Name = CHEMBL5428602
  10 active torsions:
  status: ('A' for Active; 'I' for Inactive)
    1  A    between atoms: C_1  and  O_2
    2  A    between atoms: O_2  and  C_3
    3  A    between atoms: C_5  and  C_6
    4  A    between atoms: C_6  and  N_7
    5  A    between atoms: C_8  and  C_10
    6  A    between atoms: C_10  and  C_11
    7  A    between atoms: C_11  and  C_12
    8  A    between atoms: C_12  and  C_13
    9  A    between atoms: C_16  and  C_17
   10  A    between atoms: C_26  and  O_27
                            x       y       z     vdW  Elec       q    Type
                         _______ _______ _______ _____ _____    ______ ____

>  <TORSDO>
F 9

>  <SCORE>
-8.018

>  <RMSD_LB>
2.268

>  <RMSD_UB>
5.908

$$$$
CHEMBL5428602
 OpenBabel10162523333D

 29 31  0  0  0  0  0  0  0  0999 V2000
  135.6720  134.8900  153.7760 N   0  0  0  0  0  0  0  0  0  0  0  0
  134.8480  135.3330  152.7700 C   0  0  0  0  0  0  0  0  0  0  0  0
  134.0670  136.2710  152.9160 O   0  0  0  0  0  0  0  0  0  0  0  0
  136.2620  134.1190  153.6120 H   0  0  0  0  0  0  0  0  0  0  0  0
  135.6880  135.5340  155.0720 C   0  0  0  0  0  2  0  0  0  0  0  0
  138.5680  138.0320  154.6710 C   0  0  0  0  0  0  0  0  0  0  0  0
  137.3780  137.3250  154.4480 C   0  0  0  0  0  3  0  0  0  0  0  0
  136.9580  136.3110  155.3310 C   0  0  0  0  0  0  0  0  0  0  0  0
  137.7480  136.0220  156.4510 C   0  0  0  0  0  3  0  0  0  0  0  0
  138.9370  136.7140  156.6820 C   0  0  0  0  0  3  0  0  0  0  0  0
  139.3410  137.7100  155.7940 C   0  0  0  0  0  0  0  0  0  0  0  0
  139.5440  138.6350  152.5830 C   0  0  0  0  0  1  0  0  0  0  0  0
  139.0500  139.0260  153.8580 O   0  0  0  0  0  0  0  0  0  0  0  0
  140.5120  138.3890  156.0250 O   0  0  0  0  0  0  0  0  0  0  0  0
  140.4880  139.2870  156.2910 H   0  0  0  0  0  0  0  0  0  0  0  0
  135.0100  134.5780  151.4620 C   0  0  0  0  0  2  0  0  0  0  0  0
  133.9440  133.4850  151.3320 C   0  0  0  0  0  2  0  0  0  0  0  0
  132.7720  133.9160  150.4520 C   0  0  0  0  0  2  0  0  0  0  0  0
  133.1970  134.2640  149.0550 C   0  0  0  0  0  0  0  0  0  0  0  0
  133.6330  133.4110  148.0640 C   0  0  0  0  0  3  0  0  0  0  0  0
  133.9000  134.0890  146.8400 C   0  0  0  0  0  3  0  0  0  0  0  0
  133.6600  135.4490  146.9140 C   0  0  0  0  0  0  0  0  0  0  0  0
  133.1290  135.8790  148.4940 S   0  0  0  0  0  0  0  0  0  0  0  0
  133.7730  136.4520  145.8430 C   0  0  0  0  0  0  0  0  0  0  0  0
  133.1310  137.6940  145.9780 C   0  0  0  0  0  3  0  0  0  0  0  0
  133.2130  138.6630  144.9750 C   0  0  0  0  0  3  0  0  0  0  0  0
  133.9370  138.4030  143.8170 C   0  0  0  0  0  3  0  0  0  0  0  0
  134.5790  137.1770  143.6600 C   0  0  0  0  0  3  0  0  0  0  0  0
  134.4960  136.2070  144.6640 C   0  0  0  0  0  3  0  0  0  0  0  0
  1  5  1  0  0  0  0
  2  3  2  0  0  0  0
  2  1  1  0  0  0  0
  4  1  1  0  0  0  0
  5  8  1  0  0  0  0
  6 11  1  0  0  0  0
  7  6  2  0  0  0  0
  7  8  1  0  0  0  0
  8  9  2  0  0  0  0
  9 10  1  0  0  0  0
 11 14  1  0  0  0  0
 11 10  2  0  0  0  0
 12 13  1  0  0  0  0
 13  6  1  0  0  0  0
 14 15  1  0  0  0  0
 16  2  1  0  0  0  0
 17 16  1  0  0  0  0
 18 17  1  0  0  0  0
 19 18  1  0  0  0  0
 20 19  2  0  0  0  0
 21 22  2  0  0  0  0
 21 20  1  0  0  0  0
 22 23  1  0  0  0  0
 23 19  1  0  0  0  0
 24 25  1  0  0  0  0
 24 22  1  0  0  0  0
 26 25  2  0  0  0  0
 27 26  1  0  0  0  0
 28 27  2  0  0  0  0
 28 29  1  0  0  0  0
 29 24  2  0  0  0  0
M  END
>  <MODEL>
4

>  <REMARK>
 VINA RESULT:    -7.890      3.299      5.632
 INTER + INTRA:         -12.254
 INTER:                 -11.398
 INTRA:                  -0.856
 UNBOUND:                -0.443
  Name = CHEMBL5428602
  10 active torsions:
  status: ('A' for Active; 'I' for Inactive)
    1  A    between atoms: C_1  and  O_2
    2  A    between atoms: O_2  and  C_3
    3  A    between atoms: C_5  and  C_6
    4  A    between atoms: C_6  and  N_7
    5  A    between atoms: C_8  and  C_10
    6  A    between atoms: C_10  and  C_11
    7  A    between atoms: C_11  and  C_12
    8  A    between atoms: C_12  and  C_13
    9  A    between atoms: C_16  and  C_17
   10  A    between atoms: C_26  and  O_27
                            x       y       z     vdW  Elec       q    Type
                         _______ _______ _______ _____ _____    ______ ____

>  <TORSDO>
F 9

>  <SCORE>
-7.890

>  <RMSD_LB>
3.299

>  <RMSD_UB>
5.632

$$$$
CHEMBL5428602
 OpenBabel10162523333D

 29 31  0  0  0  0  0  0  0  0999 V2000
  142.6170  139.3920  152.9480 N   0  0  0  0  0  0  0  0  0  0  0  0
  141.8410  138.2580  152.9620 C   0  0  0  0  0  0  0  0  0  0  0  0
  141.8680  137.4250  152.0570 O   0  0  0  0  0  0  0  0  0  0  0  0
  142.5390  140.0390  153.6860 H   0  0  0  0  0  0  0  0  0  0  0  0
  143.5440  139.6550  151.8690 C   0  0  0  0  0  2  0  0  0  0  0  0
  146.7820  140.3780  153.7900 C   0  0  0  0  0  0  0  0  0  0  0  0
  145.6140  139.7470  153.3390 C   0  0  0  0  0  3  0  0  0  0  0  0
  144.8170  140.3250  152.3320 C   0  0  0  0  0  0  0  0  0  0  0  0
  145.2160  141.5480  151.7750 C   0  0  0  0  0  3  0  0  0  0  0  0
  146.3730  142.1890  152.2180 C   0  0  0  0  0  3  0  0  0  0  0  0
  147.1460  141.6050  153.2200 C   0  0  0  0  0  0  0  0  0  0  0  0
  148.1280  138.5770  154.5770 C   0  0  0  0  0  1  0  0  0  0  0  0
  147.6080  139.8860  154.7690 O   0  0  0  0  0  0  0  0  0  0  0  0
  148.2840  142.2390  153.6530 O   0  0  0  0  0  0  0  0  0  0  0  0
  148.5770  143.0210  153.2270 H   0  0  0  0  0  0  0  0  0  0  0  0
  140.9730  138.1190  154.2000 C   0  0  0  0  0  2  0  0  0  0  0  0
  139.6040  138.7720  153.9780 C   0  0  0  0  0  2  0  0  0  0  0  0
  138.4490  137.8170  154.2720 C   0  0  0  0  0  2  0  0  0  0  0  0
  137.7630  137.3400  153.0240 C   0  0  0  0  0  0  0  0  0  0  0  0
  138.1340  137.5610  151.7150 C   0  0  0  0  0  3  0  0  0  0  0  0
  137.2740  136.9070  150.7870 C   0  0  0  0  0  3  0  0  0  0  0  0
  136.2620  136.1920  151.4030 C   0  0  0  0  0  0  0  0  0  0  0  0
  136.3700  136.3520  153.1130 S   0  0  0  0  0  0  0  0  0  0  0  0
  135.2270  135.3560  150.7730 C   0  0  0  0  0  0  0  0  0  0  0  0
  134.3330  135.9270  149.8520 C   0  0  0  0  0  3  0  0  0  0  0  0
  133.3340  135.1610  149.2450 C   0  0  0  0  0  3  0  0  0  0  0  0
  133.2140  133.8100  149.5520 C   0  0  0  0  0  3  0  0  0  0  0  0
  134.0870  133.2250  150.4640 C   0  0  0  0  0  3  0  0  0  0  0  0
  135.0850  133.9920  151.0730 C   0  0  0  0  0  3  0  0  0  0  0  0
  1  2  1  0  0  0  0
  1  4  1  0  0  0  0
  2 16  1  0  0  0  0
  3  2  2  0  0  0  0
  5  8  1  0  0  0  0
  5  1  1  0  0  0  0
  6 13  1  0  0  0  0
  7  6  1  0  0  0  0
  8  7  2  0  0  0  0
  9 10  2  0  0  0  0
  9  8  1  0  0  0  0
 10 11  1  0  0  0  0
 11 14  1  0  0  0  0
 11  6  2  0  0  0  0
 12 13  1  0  0  0  0
 15 14  1  0  0  0  0
 17 16  1  0  0  0  0
 17 18  1  0  0  0  0
 19 23  1  0  0  0  0
 19 18  1  0  0  0  0
 20 19  2  0  0  0  0
 21 22  2  0  0  0  0
 21 20  1  0  0  0  0
 22 23  1  0  0  0  0
 24 29  1  0  0  0  0
 24 22  1  0  0  0  0
 25 24  2  0  0  0  0
 26 27  2  0  0  0  0
 26 25  1  0  0  0  0
 27 28  1  0  0  0  0
 28 29  2  0  0  0  0
M  END
>  <MODEL>
5

>  <REMARK>
 VINA RESULT:    -7.649      4.618      8.183
 INTER + INTRA:         -11.893
 INTER:                 -11.089
 INTRA:                  -0.805
 UNBOUND:                -0.443
  Name = CHEMBL5428602
  10 active torsions:
  status: ('A' for Active; 'I' for Inactive)
    1  A    between atoms: C_1  and  O_2
    2  A    between atoms: O_2  and  C_3
    3  A    between atoms: C_5  and  C_6
    4  A    between atoms: C_6  and  N_7
    5  A    between atoms: C_8  and  C_10
    6  A    between atoms: C_10  and  C_11
    7  A    between atoms: C_11  and  C_12
    8  A    between atoms: C_12  and  C_13
    9  A    between atoms: C_16  and  C_17
   10  A    between atoms: C_26  and  O_27
                            x       y       z     vdW  Elec       q    Type
                         _______ _______ _______ _____ _____    ______ ____

>  <TORSDO>
F 9

>  <SCORE>
-7.649

>  <RMSD_LB>
4.618

>  <RMSD_UB>
8.183

$$$$
CHEMBL5428602
 OpenBabel10162523333D

 29 31  0  0  0  0  0  0  0  0999 V2000
  135.4490  135.9110  152.4990 N   0  0  0  0  0  0  0  0  0  0  0  0
  135.2350  135.3090  151.2820 C   0  0  0  0  0  0  0  0  0  0  0  0
  135.4160  134.1070  151.0950 O   0  0  0  0  0  0  0  0  0  0  0  0
  135.3120  136.8810  152.5880 H   0  0  0  0  0  0  0  0  0  0  0  0
  135.8750  135.1450  153.6510 C   0  0  0  0  0  2  0  0  0  0  0  0
  137.8410  137.9110  155.4340 C   0  0  0  0  0  0  0  0  0  0  0  0
  137.2590  137.1290  154.4260 C   0  0  0  0  0  3  0  0  0  0  0  0
  136.4760  136.0010  154.7410 C   0  0  0  0  0  0  0  0  0  0  0  0
  136.2770  135.6740  156.0890 C   0  0  0  0  0  3  0  0  0  0  0  0
  136.8540  136.4400  157.1010 C   0  0  0  0  0  3  0  0  0  0  0  0
  137.6310  137.5500  156.7710 C   0  0  0  0  0  0  0  0  0  0  0  0
  139.4590  138.9980  154.0640 C   0  0  0  0  0  1  0  0  0  0  0  0
  138.6190  139.0180  155.2120 O   0  0  0  0  0  0  0  0  0  0  0  0
  138.1970  138.3020  157.7700 O   0  0  0  0  0  0  0  0  0  0  0  0
  137.6920  138.5370  158.5240 H   0  0  0  0  0  0  0  0  0  0  0  0
  134.7340  136.2560  150.2060 C   0  0  0  0  0  2  0  0  0  0  0  0
  133.2670  135.9670  149.8700 C   0  0  0  0  0  2  0  0  0  0  0  0
  132.9890  136.0300  148.3690 C   0  0  0  0  0  2  0  0  0  0  0  0
  133.7240  134.9680  147.6010 C   0  0  0  0  0  0  0  0  0  0  0  0
  133.6880  133.6040  147.7940 C   0  0  0  0  0  3  0  0  0  0  0  0
  134.4720  132.8980  146.8390 C   0  0  0  0  0  3  0  0  0  0  0  0
  135.0930  133.7340  145.9280 C   0  0  0  0  0  0  0  0  0  0  0  0
  134.7200  135.3780  146.2720 S   0  0  0  0  0  0  0  0  0  0  0  0
  135.9320  133.3610  144.7770 C   0  0  0  0  0  0  0  0  0  0  0  0
  136.6760  134.3470  144.1070 C   0  0  0  0  0  3  0  0  0  0  0  0
  137.4750  134.0260  143.0070 C   0  0  0  0  0  3  0  0  0  0  0  0
  137.5400  132.7120  142.5570 C   0  0  0  0  0  3  0  0  0  0  0  0
  136.8080  131.7200  143.2040 C   0  0  0  0  0  3  0  0  0  0  0  0
  136.0080  132.0410  144.3050 C   0  0  0  0  0  3  0  0  0  0  0  0
  1  4  1  0  0  0  0
  1  5  1  0  0  0  0
  2  1  1  0  0  0  0
  3  2  2  0  0  0  0
  5  8  1  0  0  0  0
  6 11  1  0  0  0  0
  7  8  1  0  0  0  0
  7  6  2  0  0  0  0
  8  9  2  0  0  0  0
  9 10  1  0  0  0  0
 11 10  2  0  0  0  0
 11 14  1  0  0  0  0
 12 13  1  0  0  0  0
 13  6  1  0  0  0  0
 14 15  1  0  0  0  0
 16  2  1  0  0  0  0
 17 16  1  0  0  0  0
 18 17  1  0  0  0  0
 19 20  2  0  0  0  0
 19 18  1  0  0  0  0
 21 20  1  0  0  0  0
 22 23  1  0  0  0  0
 22 21  2  0  0  0  0
 23 19  1  0  0  0  0
 24 22  1  0  0  0  0
 25 24  2  0  0  0  0
 26 25  1  0  0  0  0
 27 26  2  0  0  0  0
 27 28  1  0  0  0  0
 28 29  2  0  0  0  0
 29 24  1  0  0  0  0
M  END
>  <MODEL>
6

>  <REMARK>
 VINA RESULT:    -7.635      3.470      5.840
 INTER + INTRA:         -11.872
 INTER:                 -11.020
 INTRA:                  -0.852
 UNBOUND:                -0.443
  Name = CHEMBL5428602
  10 active torsions:
  status: ('A' for Active; 'I' for Inactive)
    1  A    between atoms: C_1  and  O_2
    2  A    between atoms: O_2  and  C_3
    3  A    between atoms: C_5  and  C_6
    4  A    between atoms: C_6  and  N_7
    5  A    between atoms: C_8  and  C_10
    6  A    between atoms: C_10  and  C_11
    7  A    between atoms: C_11  and  C_12
    8  A    between atoms: C_12  and  C_13
    9  A    between atoms: C_16  and  C_17
   10  A    between atoms: C_26  and  O_27
                            x       y       z     vdW  Elec       q    Type
                         _______ _______ _______ _____ _____    ______ ____

>  <TORSDO>
F 9

>  <SCORE>
-7.635

>  <RMSD_LB>
3.470

>  <RMSD_UB>
5.840

$$$$
CHEMBL5428602
 OpenBabel10162523333D

 29 31  0  0  0  0  0  0  0  0999 V2000
  139.3330  136.6350  149.5800 N   0  0  0  0  0  0  0  0  0  0  0  0
  137.9630  136.7100  149.6520 C   0  0  0  0  0  0  0  0  0  0  0  0
  137.3680  137.7540  149.9150 O   0  0  0  0  0  0  0  0  0  0  0  0
  139.7590  135.7680  149.3910 H   0  0  0  0  0  0  0  0  0  0  0  0
  140.1600  137.8050  149.7800 C   0  0  0  0  0  2  0  0  0  0  0  0
  140.5670  138.5550  153.5180 C   0  0  0  0  0  0  0  0  0  0  0  0
  140.0170  138.4550  152.2320 C   0  0  0  0  0  3  0  0  0  0  0  0
  140.7470  137.8840  151.1710 C   0  0  0  0  0  0  0  0  0  0  0  0
  142.0380  137.4040  151.4230 C   0  0  0  0  0  3  0  0  0  0  0  0
  142.5990  137.5010  152.6960 C   0  0  0  0  0  3  0  0  0  0  0  0
  141.8650  138.0750  153.7330 C   0  0  0  0  0  0  0  0  0  0  0  0
  138.9920  138.2750  155.2840 C   0  0  0  0  0  1  0  0  0  0  0  0
  139.9270  139.1010  154.6010 O   0  0  0  0  0  0  0  0  0  0  0  0
  142.4200  138.1680  154.9850 O   0  0  0  0  0  0  0  0  0  0  0  0
  143.2440  137.7580  155.1640 H   0  0  0  0  0  0  0  0  0  0  0  0
  137.2570  135.3980  149.3560 C   0  0  0  0  0  2  0  0  0  0  0  0
  135.7560  135.5130  149.6450 C   0  0  0  0  0  2  0  0  0  0  0  0
  135.2180  134.3090  150.4160 C   0  0  0  0  0  2  0  0  0  0  0  0
  134.8250  134.6540  151.8240 C   0  0  0  0  0  0  0  0  0  0  0  0
  133.5690  134.9530  152.3050 C   0  0  0  0  0  3  0  0  0  0  0  0
  133.5620  135.1760  153.7110 C   0  0  0  0  0  3  0  0  0  0  0  0
  134.8140  135.0400  154.2840 C   0  0  0  0  0  0  0  0  0  0  0  0
  135.9850  134.6600  153.0810 S   0  0  0  0  0  0  0  0  0  0  0  0
  135.1790  135.1450  155.7060 C   0  0  0  0  0  0  0  0  0  0  0  0
  136.3860  135.7630  156.0730 C   0  0  0  0  0  3  0  0  0  0  0  0
  136.7640  135.8710  157.4140 C   0  0  0  0  0  3  0  0  0  0  0  0
  135.9410  135.3580  158.4090 C   0  0  0  0  0  3  0  0  0  0  0  0
  134.7420  134.7380  158.0680 C   0  0  0  0  0  3  0  0  0  0  0  0
  134.3640  134.6300  156.7260 C   0  0  0  0  0  3  0  0  0  0  0  0
  1  2  1  0  0  0  0
  1  5  1  0  0  0  0
  2  3  2  0  0  0  0
  4  1  1  0  0  0  0
  5  8  1  0  0  0  0
  6 11  1  0  0  0  0
  6 13  1  0  0  0  0
  7  6  2  0  0  0  0
  8  9  2  0  0  0  0
  8  7  1  0  0  0  0
  9 10  1  0  0  0  0
 10 11  2  0  0  0  0
 11 14  1  0  0  0  0
 13 12  1  0  0  0  0
 14 15  1  0  0  0  0
 16 17  1  0  0  0  0
 16  2  1  0  0  0  0
 17 18  1  0  0  0  0
 18 19  1  0  0  0  0
 19 20  2  0  0  0  0
 19 23  1  0  0  0  0
 20 21  1  0  0  0  0
 21 22  2  0  0  0  0
 22 24  1  0  0  0  0
 23 22  1  0  0  0  0
 24 25  2  0  0  0  0
 24 29  1  0  0  0  0
 25 26  1  0  0  0  0
 26 27  2  0  0  0  0
 28 27  1  0  0  0  0
 29 28  2  0  0  0  0
M  END
>  <MODEL>
7

>  <REMARK>
 VINA RESULT:    -7.544      2.616      6.637
 INTER + INTRA:         -11.737
 INTER:                 -10.606
 INTRA:                  -1.130
 UNBOUND:                -0.443
  Name = CHEMBL5428602
  10 active torsions:
  status: ('A' for Active; 'I' for Inactive)
    1  A    between atoms: C_1  and  O_2
    2  A    between atoms: O_2  and  C_3
    3  A    between atoms: C_5  and  C_6
    4  A    between atoms: C_6  and  N_7
    5  A    between atoms: C_8  and  C_10
    6  A    between atoms: C_10  and  C_11
    7  A    between atoms: C_11  and  C_12
    8  A    between atoms: C_12  and  C_13
    9  A    between atoms: C_16  and  C_17
   10  A    between atoms: C_26  and  O_27
                            x       y       z     vdW  Elec       q    Type
                         _______ _______ _______ _____ _____    ______ ____

>  <TORSDO>
F 9

>  <SCORE>
-7.544

>  <RMSD_LB>
2.616

>  <RMSD_UB>
6.637

$$$$
CHEMBL5428602
 OpenBabel10162523333D

 29 31  0  0  0  0  0  0  0  0999 V2000
  139.7410  137.9220  153.6550 N   0  0  0  0  0  0  0  0  0  0  0  0
  140.2220  137.8980  152.3680 C   0  0  0  0  0  0  0  0  0  0  0  0
  139.5580  138.2730  151.4040 O   0  0  0  0  0  0  0  0  0  0  0  0
  140.3050  137.5870  154.3880 H   0  0  0  0  0  0  0  0  0  0  0  0
  138.4180  138.4280  153.9520 C   0  0  0  0  0  2  0  0  0  0  0  0
  136.0760  135.9620  155.7210 C   0  0  0  0  0  0  0  0  0  0  0  0
  136.9960  136.9950  155.4950 C   0  0  0  0  0  3  0  0  0  0  0  0
  137.4040  137.3320  154.1900 C   0  0  0  0  0  0  0  0  0  0  0  0
  136.8660  136.6200  153.1100 C   0  0  0  0  0  3  0  0  0  0  0  0
  135.9530  135.5870  153.3210 C   0  0  0  0  0  3  0  0  0  0  0  0
  135.5650  135.2630  154.6200 C   0  0  0  0  0  0  0  0  0  0  0  0
  136.6000  135.4970  157.9990 C   0  0  0  0  0  1  0  0  0  0  0  0
  135.6320  135.5680  156.9580 O   0  0  0  0  0  0  0  0  0  0  0  0
  134.6660  134.2450  154.8250 O   0  0  0  0  0  0  0  0  0  0  0  0
  134.5290  133.9070  155.6880 H   0  0  0  0  0  0  0  0  0  0  0  0
  141.6490  137.3910  152.2530 C   0  0  0  0  0  2  0  0  0  0  0  0
  142.3090  137.9150  150.9730 C   0  0  0  0  0  2  0  0  0  0  0  0
  142.2520  139.4380  150.8700 C   0  0  0  0  0  2  0  0  0  0  0  0
  143.6160  140.0660  150.8410 C   0  0  0  0  0  0  0  0  0  0  0  0
  144.2280  140.7170  149.7920 C   0  0  0  0  0  3  0  0  0  0  0  0
  145.5060  141.2360  150.1430 C   0  0  0  0  0  3  0  0  0  0  0  0
  145.8500  140.9770  151.4580 C   0  0  0  0  0  0  0  0  0  0  0  0
  144.6050  140.0800  152.2370 S   0  0  0  0  0  0  0  0  0  0  0  0
  147.0590  141.4010  152.1830 C   0  0  0  0  0  0  0  0  0  0  0  0
  148.2110  141.7630  151.4660 C   0  0  0  0  0  3  0  0  0  0  0  0
  149.3770  142.1620  152.1250 C   0  0  0  0  0  3  0  0  0  0  0  0
  149.4090  142.2000  153.5140 C   0  0  0  0  0  3  0  0  0  0  0  0
  148.2800  141.8410  154.2450 C   0  0  0  0  0  3  0  0  0  0  0  0
  147.1130  141.4420  153.5850 C   0  0  0  0  0  3  0  0  0  0  0  0
  1  5  1  0  0  0  0
  1  4  1  0  0  0  0
  2  1  1  0  0  0  0
  3  2  2  0  0  0  0
  5  8  1  0  0  0  0
  6 13  1  0  0  0  0
  7  6  1  0  0  0  0
  8  7  2  0  0  0  0
  9 10  2  0  0  0  0
  9  8  1  0  0  0  0
 10 11  1  0  0  0  0
 11 14  1  0  0  0  0
 11  6  2  0  0  0  0
 13 12  1  0  0  0  0
 14 15  1  0  0  0  0
 16  2  1  0  0  0  0
 17 16  1  0  0  0  0
 18 17  1  0  0  0  0
 19 18  1  0  0  0  0
 19 23  1  0  0  0  0
 20 21  1  0  0  0  0
 20 19  2  0  0  0  0
 21 22  2  0  0  0  0
 22 24  1  0  0  0  0
 22 23  1  0  0  0  0
 24 29  1  0  0  0  0
 25 26  1  0  0  0  0
 25 24  2  0  0  0  0
 26 27  2  0  0  0  0
 27 28  1  0  0  0  0
 29 28  2  0  0  0  0
M  END
>  <MODEL>
8

>  <REMARK>
 VINA RESULT:    -7.518      5.296      8.992
 INTER + INTRA:         -11.697
 INTER:                 -11.254
 INTRA:                  -0.443
 UNBOUND:                -0.443
  Name = CHEMBL5428602
  10 active torsions:
  status: ('A' for Active; 'I' for Inactive)
    1  A    between atoms: C_1  and  O_2
    2  A    between atoms: O_2  and  C_3
    3  A    between atoms: C_5  and  C_6
    4  A    between atoms: C_6  and  N_7
    5  A    between atoms: C_8  and  C_10
    6  A    between atoms: C_10  and  C_11
    7  A    between atoms: C_11  and  C_12
    8  A    between atoms: C_12  and  C_13
    9  A    between atoms: C_16  and  C_17
   10  A    between atoms: C_26  and  O_27
                            x       y       z     vdW  Elec       q    Type
                         _______ _______ _______ _____ _____    ______ ____

>  <TORSDO>
F 9

>  <SCORE>
-7.518

>  <RMSD_LB>
5.296

>  <RMSD_UB>
8.992

$$$$
CHEMBL5428602
 OpenBabel10162523333D

 29 31  0  0  0  0  0  0  0  0999 V2000
  135.6140  133.0590  145.4080 N   0  0  0  0  0  0  0  0  0  0  0  0
  136.0080  131.9520  144.6950 C   0  0  0  0  0  0  0  0  0  0  0  0
  136.1740  130.8510  145.2170 O   0  0  0  0  0  0  0  0  0  0  0  0
  135.5190  133.9220  144.9460 H   0  0  0  0  0  0  0  0  0  0  0  0
  135.3370  132.9790  146.8270 C   0  0  0  0  0  2  0  0  0  0  0  0
  133.6660  135.4550  149.2290 C   0  0  0  0  0  0  0  0  0  0  0  0
  134.3670  134.3460  148.7360 C   0  0  0  0  0  3  0  0  0  0  0  0
  134.6050  134.1900  147.3560 C   0  0  0  0  0  0  0  0  0  0  0  0
  134.1350  135.1740  146.4760 C   0  0  0  0  0  3  0  0  0  0  0  0
  133.4320  136.2790  146.9530 C   0  0  0  0  0  3  0  0  0  0  0  0
  133.2000  136.4140  148.3210 C   0  0  0  0  0  0  0  0  0  0  0  0
  132.5760  134.7130  151.2140 C   0  0  0  0  0  1  0  0  0  0  0  0
  133.3870  135.6770  150.5530 O   0  0  0  0  0  0  0  0  0  0  0  0
  132.5070  137.5040  148.7860 O   0  0  0  0  0  0  0  0  0  0  0  0
  131.6560  137.6980  148.4470 H   0  0  0  0  0  0  0  0  0  0  0  0
  136.1940  132.2100  143.2100 C   0  0  0  0  0  2  0  0  0  0  0  0
  137.6540  132.5560  142.8990 C   0  0  0  0  0  2  0  0  0  0  0  0
  137.7940  133.8970  142.1810 C   0  0  0  0  0  2  0  0  0  0  0  0
  137.1780  135.0310  142.9490 C   0  0  0  0  0  0  0  0  0  0  0  0
  137.6410  135.6240  144.1040 C   0  0  0  0  0  3  0  0  0  0  0  0
  136.8250  136.7120  144.5230 C   0  0  0  0  0  3  0  0  0  0  0  0
  135.7510  136.9360  143.6800 C   0  0  0  0  0  0  0  0  0  0  0  0
  135.7500  135.7920  142.3950 S   0  0  0  0  0  0  0  0  0  0  0  0
  134.7340  137.9970  143.7660 C   0  0  0  0  0  0  0  0  0  0  0  0
  133.7540  138.1070  142.7650 C   0  0  0  0  0  3  0  0  0  0  0  0
  132.7800  139.1080  142.8140 C   0  0  0  0  0  3  0  0  0  0  0  0
  132.7740  140.0170  143.8660 C   0  0  0  0  0  3  0  0  0  0  0  0
  133.7380  139.9290  144.8660 C   0  0  0  0  0  3  0  0  0  0  0  0
  134.7130  138.9280  144.8170 C   0  0  0  0  0  3  0  0  0  0  0  0
  1  5  1  0  0  0  0
  2  3  2  0  0  0  0
  2  1  1  0  0  0  0
  4  1  1  0  0  0  0
  5  8  1  0  0  0  0
  6 13  1  0  0  0  0
  7  6  1  0  0  0  0
  8  7  2  0  0  0  0
  9 10  2  0  0  0  0
  9  8  1  0  0  0  0
 10 11  1  0  0  0  0
 11 14  1  0  0  0  0
 11  6  2  0  0  0  0
 13 12  1  0  0  0  0
 15 14  1  0  0  0  0
 16  2  1  0  0  0  0
 17 16  1  0  0  0  0
 18 17  1  0  0  0  0
 18 19  1  0  0  0  0
 19 20  2  0  0  0  0
 20 21  1  0  0  0  0
 22 24  1  0  0  0  0
 22 21  2  0  0  0  0
 23 19  1  0  0  0  0
 23 22  1  0  0  0  0
 24 29  1  0  0  0  0
 25 26  1  0  0  0  0
 25 24  2  0  0  0  0
 26 27  2  0  0  0  0
 27 28  1  0  0  0  0
 29 28  2  0  0  0  0
M  END
>  <MODEL>
9

>  <REMARK>
 VINA RESULT:    -7.425      6.027      8.747
 INTER + INTRA:         -11.557
 INTER:                  -9.695
 INTRA:                  -1.862
 UNBOUND:                -0.443
  Name = CHEMBL5428602
  10 active torsions:
  status: ('A' for Active; 'I' for Inactive)
    1  A    between atoms: C_1  and  O_2
    2  A    between atoms: O_2  and  C_3
    3  A    between atoms: C_5  and  C_6
    4  A    between atoms: C_6  and  N_7
    5  A    between atoms: C_8  and  C_10
    6  A    between atoms: C_10  and  C_11
    7  A    between atoms: C_11  and  C_12
    8  A    between atoms: C_12  and  C_13
    9  A    between atoms: C_16  and  C_17
   10  A    between atoms: C_26  and  O_27
                            x       y       z     vdW  Elec       q    Type
                         _______ _______ _______ _____ _____    ______ ____

>  <TORSDO>
F 9

>  <SCORE>
-7.425

>  <RMSD_LB>
6.027

>  <RMSD_UB>
8.747

$$$$
