CHEMBL4075542
 OpenBabel10172500333D

 28 29  0  0  1  0  0  0  0  0999 V2000
  142.3280  137.6710  150.9040 C   0  0  2  0  0  3  0  0  0  0  0  0
  143.1380  136.9000  149.8460 C   0  0  0  0  0  1  0  0  0  0  0  0
  140.8640  137.1210  151.0010 C   0  0  2  0  0  3  0  0  0  0  0  0
  140.3770  136.5720  149.6500 C   0  0  0  0  0  1  0  0  0  0  0  0
  139.8810  138.2080  151.5260 C   0  0  0  0  0  2  0  0  0  0  0  0
  137.9480  137.9490  154.8140 C   0  0  0  0  0  0  0  0  0  0  0  0
  138.2550  137.9610  153.4510 C   0  0  0  0  0  3  0  0  0  0  0  0
  139.5790  138.1200  153.0070 C   0  0  0  0  0  0  0  0  0  0  0  0
  140.6090  138.2050  153.9520 C   0  0  0  0  0  3  0  0  0  0  0  0
  140.3190  138.1690  155.3160 C   0  0  0  0  0  3  0  0  0  0  0  0
  138.9950  138.0520  155.7400 C   0  0  0  0  0  0  0  0  0  0  0  0
  136.1250  136.5560  155.4560 C   0  0  0  0  0  1  0  0  0  0  0  0
  136.6790  137.8580  155.3260 O   0  0  0  0  0  0  0  0  0  0  0  0
  138.7120  138.0410  157.0810 O   0  0  0  0  0  0  0  0  0  0  0  0
  137.8930  138.3750  157.3890 H   0  0  0  0  0  0  0  0  0  0  0  0
  142.3650  139.1980  150.6060 C   0  0  0  0  0  2  0  0  0  0  0  0
  143.5980  139.9060  151.1260 C   0  0  0  0  0  0  0  0  0  0  0  0
  144.3100  140.7920  150.3110 C   0  0  0  0  0  3  0  0  0  0  0  0
  145.3840  141.5250  150.8220 C   0  0  0  0  0  3  0  0  0  0  0  0
  145.7740  141.3650  152.1530 C   0  0  0  0  0  0  0  0  0  0  0  0
  145.1280  140.4190  152.9630 C   0  0  0  0  0  0  0  0  0  0  0  0
  144.0360  139.7080  152.4440 C   0  0  0  0  0  3  0  0  0  0  0  0
  145.3890  140.1470  154.2790 O   0  0  0  0  0  0  0  0  0  0  0  0
  144.3090  139.6200  155.0390 C   0  0  0  0  0  1  0  0  0  0  0  0
  146.7670  142.1880  152.7490 O   0  0  0  0  0  0  0  0  0  0  0  0
  148.1400  141.9430  152.8420 C   0  0  0  0  0  0  0  0  0  0  0  0
  148.5370  141.9030  154.2910 C   0  0  0  0  0  1  0  0  0  0  0  0
  148.9350  141.8220  151.9230 O   0  0  0  0  0  0  0  0  0  0  0  0
  1  2  1  6  0  0  0
  1  3  1  0  0  0  0
  3  4  1  6  0  0  0
  3  5  1  0  0  0  0
  5  8  1  0  0  0  0
  6 13  1  0  0  0  0
  6 11  1  0  0  0  0
  7  6  2  0  0  0  0
  8  7  1  0  0  0  0
  8  9  2  0  0  0  0
  9 10  1  0  0  0  0
 10 11  2  0  0  0  0
 11 14  1  0  0  0  0
 13 12  1  0  0  0  0
 14 15  1  0  0  0  0
 16  1  1  0  0  0  0
 16 17  1  0  0  0  0
 17 22  1  0  0  0  0
 18 19  1  0  0  0  0
 18 17  2  0  0  0  0
 19 20  2  0  0  0  0
 20 25  1  0  0  0  0
 20 21  1  0  0  0  0
 21 23  1  0  0  0  0
 22 21  2  0  0  0  0
 23 24  1  0  0  0  0
 25 26  1  0  0  0  0
 26 27  1  0  0  0  0
 28 26  2  0  0  0  0
M  END
>  <MODEL>
1

>  <REMARK>
 VINA RESULT:    -7.697      0.000      0.000
 INTER + INTRA:         -13.043
 INTER:                 -11.485
 INTRA:                  -1.558
 UNBOUND:                -1.071
  Name = CHEMBL4075542
  15 active torsions:
  status: ('A' for Active; 'I' for Inactive)
    1  A    between atoms: C_1  and  O_2
    2  A    between atoms: O_2  and  C_3
    3  A    between atoms: C_5  and  C_6
    4  A    between atoms: C_6  and  C_7
    5  A    between atoms: C_7  and  C_8
    6  A    between atoms: C_7  and  C_9
    7  A    between atoms: C_9  and  C_10
    8  A    between atoms: C_9  and  C_11
    9  A    between atoms: C_11  and  C_12
   10  A    between atoms: C_15  and  O_16
   11  A    between atoms: O_16  and  C_17
   12  A    between atoms: C_17  and  C_18
   13  A    between atoms: C_20  and  O_21
   14  A    between atoms: O_21  and  C_22
   15  A    between atoms: C_26  and  O_27
                            x       y       z     vdW  Elec       q    Type
                         _______ _______ _______ _____ _____    ______ ____

>  <TORSDO>
F 10

>  <SCORE>
-7.697

>  <RMSD_LB>
0.000

>  <RMSD_UB>
0.000

$$$$
CHEMBL4075542
 OpenBabel10172500333D

 28 29  0  0  1  0  0  0  0  0999 V2000
  143.1720  138.2480  151.4670 C   0  0  2  0  0  3  0  0  0  0  0  0
  143.0720  139.5680  150.6810 C   0  0  0  0  0  1  0  0  0  0  0  0
  144.5280  137.5190  151.1700 C   0  0  2  0  0  3  0  0  0  0  0  0
  144.3150  136.2590  150.3160 C   0  0  0  0  0  1  0  0  0  0  0  0
  145.2790  137.1570  152.4850 C   0  0  0  0  0  2  0  0  0  0  0  0
  147.3440  140.3560  152.8270 C   0  0  0  0  0  0  0  0  0  0  0  0
  146.2910  139.4770  152.5630 C   0  0  0  0  0  3  0  0  0  0  0  0
  146.4020  138.1050  152.8490 C   0  0  0  0  0  0  0  0  0  0  0  0
  147.5660  137.6300  153.4650 C   0  0  0  0  0  3  0  0  0  0  0  0
  148.6150  138.5010  153.7570 C   0  0  0  0  0  3  0  0  0  0  0  0
  148.5050  139.8530  153.4290 C   0  0  0  0  0  0  0  0  0  0  0  0
  146.0710  142.3340  152.4490 C   0  0  0  0  0  1  0  0  0  0  0  0
  147.3370  141.6930  152.5240 O   0  0  0  0  0  0  0  0  0  0  0  0
  149.5480  140.7020  153.6950 O   0  0  0  0  0  0  0  0  0  0  0  0
  150.4140  140.3610  153.8010 H   0  0  0  0  0  0  0  0  0  0  0  0
  141.9400  137.3460  151.1690 C   0  0  0  0  0  2  0  0  0  0  0  0
  140.7190  137.6600  152.0060 C   0  0  0  0  0  0  0  0  0  0  0  0
  139.4330  137.4820  151.4870 C   0  0  0  0  0  3  0  0  0  0  0  0
  138.3060  137.6710  152.2910 C   0  0  0  0  0  3  0  0  0  0  0  0
  138.4520  138.0620  153.6240 C   0  0  0  0  0  0  0  0  0  0  0  0
  139.7290  138.3290  154.1390 C   0  0  0  0  0  0  0  0  0  0  0  0
  140.8520  138.1120  153.3270 C   0  0  0  0  0  3  0  0  0  0  0  0
  140.0370  138.7160  155.4160 O   0  0  0  0  0  0  0  0  0  0  0  0
  140.6190  137.7220  156.2510 C   0  0  0  0  0  1  0  0  0  0  0  0
  137.3450  138.1310  154.5120 O   0  0  0  0  0  0  0  0  0  0  0  0
  137.0110  137.2390  155.5350 C   0  0  0  0  0  0  0  0  0  0  0  0
  136.4910  135.9660  154.9290 C   0  0  0  0  0  1  0  0  0  0  0  0
  137.0710  137.4360  156.7390 O   0  0  0  0  0  0  0  0  0  0  0  0
  1  2  1  6  0  0  0
  3  4  1  1  0  0  0
  3  1  1  0  0  0  0
  3  5  1  0  0  0  0
  5  8  1  0  0  0  0
  6 11  1  0  0  0  0
  7  6  2  0  0  0  0
  7  8  1  0  0  0  0
  8  9  2  0  0  0  0
  9 10  1  0  0  0  0
 11 14  1  0  0  0  0
 11 10  2  0  0  0  0
 12 13  1  0  0  0  0
 13  6  1  0  0  0  0
 14 15  1  0  0  0  0
 16  1  1  0  0  0  0
 16 17  1  0  0  0  0
 17 22  1  0  0  0  0
 18 17  2  0  0  0  0
 18 19  1  0  0  0  0
 19 20  2  0  0  0  0
 20 21  1  0  0  0  0
 20 25  1  0  0  0  0
 21 23  1  0  0  0  0
 22 21  2  0  0  0  0
 23 24  1  0  0  0  0
 25 26  1  0  0  0  0
 26 28  2  0  0  0  0
 27 26  1  0  0  0  0
M  END
>  <MODEL>
2

>  <REMARK>
 VINA RESULT:    -7.453      1.749      8.227
 INTER + INTRA:         -12.663
 INTER:                 -11.318
 INTRA:                  -1.345
 UNBOUND:                -1.071
  Name = CHEMBL4075542
  15 active torsions:
  status: ('A' for Active; 'I' for Inactive)
    1  A    between atoms: C_1  and  O_2
    2  A    between atoms: O_2  and  C_3
    3  A    between atoms: C_5  and  C_6
    4  A    between atoms: C_6  and  C_7
    5  A    between atoms: C_7  and  C_8
    6  A    between atoms: C_7  and  C_9
    7  A    between atoms: C_9  and  C_10
    8  A    between atoms: C_9  and  C_11
    9  A    between atoms: C_11  and  C_12
   10  A    between atoms: C_15  and  O_16
   11  A    between atoms: O_16  and  C_17
   12  A    between atoms: C_17  and  C_18
   13  A    between atoms: C_20  and  O_21
   14  A    between atoms: O_21  and  C_22
   15  A    between atoms: C_26  and  O_27
                            x       y       z     vdW  Elec       q    Type
                         _______ _______ _______ _____ _____    ______ ____

>  <TORSDO>
F 10

>  <SCORE>
-7.453

>  <RMSD_LB>
1.749

>  <RMSD_UB>
8.227

$$$$
CHEMBL4075542
 OpenBabel10172500333D

 28 29  0  0  1  0  0  0  0  0999 V2000
  137.8230  136.9940  150.8310 C   0  0  2  0  0  3  0  0  0  0  0  0
  137.5030  137.9570  149.6730 C   0  0  0  0  0  1  0  0  0  0  0  0
  136.5340  136.2390  151.3060 C   0  0  2  0  0  3  0  0  0  0  0  0
  136.4070  136.2500  152.8380 C   0  0  0  0  0  1  0  0  0  0  0  0
  136.5020  134.7770  150.7740 C   0  0  0  0  0  2  0  0  0  0  0  0
  134.1510  134.4320  147.7780 C   0  0  0  0  0  0  0  0  0  0  0  0
  135.2890  134.6730  148.5540 C   0  0  0  0  0  3  0  0  0  0  0  0
  135.2840  134.4380  149.9390 C   0  0  0  0  0  0  0  0  0  0  0  0
  134.1390  133.8960  150.5350 C   0  0  0  0  0  3  0  0  0  0  0  0
  133.0050  133.6280  149.7680 C   0  0  0  0  0  3  0  0  0  0  0  0
  133.0120  133.9050  148.4010 C   0  0  0  0  0  0  0  0  0  0  0  0
  134.5980  133.7210  145.5490 C   0  0  0  0  0  1  0  0  0  0  0  0
  134.0560  134.6900  146.4350 O   0  0  0  0  0  0  0  0  0  0  0  0
  131.8880  133.6640  147.6550 O   0  0  0  0  0  0  0  0  0  0  0  0
  131.8030  134.0390  146.8010 H   0  0  0  0  0  0  0  0  0  0  0  0
  138.5200  137.7580  151.9930 C   0  0  0  0  0  2  0  0  0  0  0  0
  140.0290  137.6380  152.0030 C   0  0  0  0  0  0  0  0  0  0  0  0
  140.7090  137.1020  150.9050 C   0  0  0  0  0  3  0  0  0  0  0  0
  142.1050  137.0870  150.8690 C   0  0  0  0  0  3  0  0  0  0  0  0
  142.8420  137.5900  151.9440 C   0  0  0  0  0  0  0  0  0  0  0  0
  142.1790  138.0520  153.0910 C   0  0  0  0  0  0  0  0  0  0  0  0
  140.7770  138.0840  153.1030 C   0  0  0  0  0  3  0  0  0  0  0  0
  142.7530  138.5740  154.2190 O   0  0  0  0  0  0  0  0  0  0  0  0
  141.8790  139.2500  155.1150 C   0  0  0  0  0  1  0  0  0  0  0  0
  144.2560  137.7210  151.8910 O   0  0  0  0  0  0  0  0  0  0  0  0
  145.2120  136.7020  151.9120 C   0  0  0  0  0  0  0  0  0  0  0  0
  145.8180  136.6230  153.2860 C   0  0  0  0  0  1  0  0  0  0  0  0
  145.5650  135.9970  150.9790 O   0  0  0  0  0  0  0  0  0  0  0  0
  1  2  1  6  0  0  0
  1  3  1  0  0  0  0
  1 16  1  0  0  0  0
  3  4  1  1  0  0  0
  5  3  1  0  0  0  0
  6 11  2  0  0  0  0
  6  7  1  0  0  0  0
  7  8  2  0  0  0  0
  8  9  1  0  0  0  0
  8  5  1  0  0  0  0
 10  9  2  0  0  0  0
 11 10  1  0  0  0  0
 12 13  1  0  0  0  0
 13  6  1  0  0  0  0
 14 11  1  0  0  0  0
 15 14  1  0  0  0  0
 16 17  1  0  0  0  0
 17 22  1  0  0  0  0
 18 17  2  0  0  0  0
 19 18  1  0  0  0  0
 19 20  2  0  0  0  0
 20 21  1  0  0  0  0
 21 22  2  0  0  0  0
 21 23  1  0  0  0  0
 23 24  1  0  0  0  0
 25 26  1  0  0  0  0
 25 20  1  0  0  0  0
 26 27  1  0  0  0  0
 28 26  2  0  0  0  0
M  END
>  <MODEL>
3

>  <REMARK>
 VINA RESULT:    -7.438      4.897      6.763
 INTER + INTRA:         -12.639
 INTER:                 -11.389
 INTRA:                  -1.250
 UNBOUND:                -1.071
  Name = CHEMBL4075542
  15 active torsions:
  status: ('A' for Active; 'I' for Inactive)
    1  A    between atoms: C_1  and  O_2
    2  A    between atoms: O_2  and  C_3
    3  A    between atoms: C_5  and  C_6
    4  A    between atoms: C_6  and  C_7
    5  A    between atoms: C_7  and  C_8
    6  A    between atoms: C_7  and  C_9
    7  A    between atoms: C_9  and  C_10
    8  A    between atoms: C_9  and  C_11
    9  A    between atoms: C_11  and  C_12
   10  A    between atoms: C_15  and  O_16
   11  A    between atoms: O_16  and  C_17
   12  A    between atoms: C_17  and  C_18
   13  A    between atoms: C_20  and  O_21
   14  A    between atoms: O_21  and  C_22
   15  A    between atoms: C_26  and  O_27
                            x       y       z     vdW  Elec       q    Type
                         _______ _______ _______ _____ _____    ______ ____

>  <TORSDO>
F 10

>  <SCORE>
-7.438

>  <RMSD_LB>
4.897

>  <RMSD_UB>
6.763

$$$$
CHEMBL4075542
 OpenBabel10172500333D

 28 29  0  0  1  0  0  0  0  0999 V2000
  141.9970  138.3460  154.4940 C   0  0  2  0  0  3  0  0  0  0  0  0
  142.4860  139.5590  155.3070 C   0  0  0  0  0  1  0  0  0  0  0  0
  142.9660  138.0430  153.2990 C   0  0  2  0  0  3  0  0  0  0  0  0
  142.2110  137.4510  152.0980 C   0  0  0  0  0  1  0  0  0  0  0  0
  144.1210  137.0940  153.7290 C   0  0  0  0  0  2  0  0  0  0  0  0
  146.8940  139.7110  153.4360 C   0  0  0  0  0  0  0  0  0  0  0  0
  145.6340  139.1050  153.4480 C   0  0  0  0  0  3  0  0  0  0  0  0
  145.4840  137.7520  153.7970 C   0  0  0  0  0  0  0  0  0  0  0  0
  146.6100  137.0220  154.1970 C   0  0  0  0  0  3  0  0  0  0  0  0
  147.8690  137.6210  154.2130 C   0  0  0  0  0  3  0  0  0  0  0  0
  148.0070  138.9540  153.8250 C   0  0  0  0  0  0  0  0  0  0  0  0
  146.5490  142.0320  153.8430 C   0  0  0  0  0  1  0  0  0  0  0  0
  147.1310  141.0060  153.0520 O   0  0  0  0  0  0  0  0  0  0  0  0
  149.2500  139.5330  153.8190 O   0  0  0  0  0  0  0  0  0  0  0  0
  149.3930  140.3390  154.2740 H   0  0  0  0  0  0  0  0  0  0  0  0
  140.5310  138.5660  154.0220 C   0  0  0  0  0  2  0  0  0  0  0  0
  139.4850  137.9520  154.9280 C   0  0  0  0  0  0  0  0  0  0  0  0
  139.7770  137.6670  156.2660 C   0  0  0  0  0  3  0  0  0  0  0  0
  138.7840  137.1990  157.1290 C   0  0  0  0  0  3  0  0  0  0  0  0
  137.4860  136.9890  156.6590 C   0  0  0  0  0  0  0  0  0  0  0  0
  137.1930  137.1860  155.3020 C   0  0  0  0  0  0  0  0  0  0  0  0
  138.1940  137.6800  154.4520 C   0  0  0  0  0  3  0  0  0  0  0  0
  135.9780  137.0280  154.6910 O   0  0  0  0  0  0  0  0  0  0  0  0
  135.7900  135.8160  153.9700 C   0  0  0  0  0  1  0  0  0  0  0  0
  136.4170  136.6480  157.5310 O   0  0  0  0  0  0  0  0  0  0  0  0
  136.3920  136.7230  158.9260 C   0  0  0  0  0  0  0  0  0  0  0  0
  136.0620  138.1300  159.3390 C   0  0  0  0  0  1  0  0  0  0  0  0
  136.6390  135.8280  159.7210 O   0  0  0  0  0  0  0  0  0  0  0  0
  1  2  1  6  0  0  0
  3  4  1  6  0  0  0
  3  5  1  0  0  0  0
  3  1  1  0  0  0  0
  5  8  1  0  0  0  0
  6  7  2  0  0  0  0
  6 11  1  0  0  0  0
  7  8  1  0  0  0  0
  8  9  2  0  0  0  0
  9 10  1  0  0  0  0
 11 10  2  0  0  0  0
 13  6  1  0  0  0  0
 13 12  1  0  0  0  0
 14 11  1  0  0  0  0
 14 15  1  0  0  0  0
 16  1  1  0  0  0  0
 16 17  1  0  0  0  0
 17 18  1  0  0  0  0
 18 19  2  0  0  0  0
 20 19  1  0  0  0  0
 20 25  1  0  0  0  0
 21 20  2  0  0  0  0
 22 17  2  0  0  0  0
 22 21  1  0  0  0  0
 23 21  1  0  0  0  0
 24 23  1  0  0  0  0
 25 26  1  0  0  0  0
 26 27  1  0  0  0  0
 26 28  2  0  0  0  0
M  END
>  <MODEL>
4

>  <REMARK>
 VINA RESULT:    -7.351      2.372      9.197
 INTER + INTRA:         -12.505
 INTER:                 -11.304
 INTRA:                  -1.200
 UNBOUND:                -1.071
  Name = CHEMBL4075542
  15 active torsions:
  status: ('A' for Active; 'I' for Inactive)
    1  A    between atoms: C_1  and  O_2
    2  A    between atoms: O_2  and  C_3
    3  A    between atoms: C_5  and  C_6
    4  A    between atoms: C_6  and  C_7
    5  A    between atoms: C_7  and  C_8
    6  A    between atoms: C_7  and  C_9
    7  A    between atoms: C_9  and  C_10
    8  A    between atoms: C_9  and  C_11
    9  A    between atoms: C_11  and  C_12
   10  A    between atoms: C_15  and  O_16
   11  A    between atoms: O_16  and  C_17
   12  A    between atoms: C_17  and  C_18
   13  A    between atoms: C_20  and  O_21
   14  A    between atoms: O_21  and  C_22
   15  A    between atoms: C_26  and  O_27
                            x       y       z     vdW  Elec       q    Type
                         _______ _______ _______ _____ _____    ______ ____

>  <TORSDO>
F 10

>  <SCORE>
-7.351

>  <RMSD_LB>
2.372

>  <RMSD_UB>
9.197

$$$$
CHEMBL4075542
 OpenBabel10172500333D

 28 29  0  0  1  0  0  0  0  0999 V2000
  139.9130  137.4320  151.9200 C   0  0  2  0  0  3  0  0  0  0  0  0
  141.3210  138.0220  151.7130 C   0  0  0  0  0  1  0  0  0  0  0  0
  139.2700  137.0200  150.5520 C   0  0  2  0  0  3  0  0  0  0  0  0
  140.1360  137.4690  149.3630 C   0  0  0  0  0  1  0  0  0  0  0  0
  137.8260  137.5850  150.4090 C   0  0  0  0  0  2  0  0  0  0  0  0
  134.6840  135.8110  149.1430 C   0  0  0  0  0  0  0  0  0  0  0  0
  135.7210  136.7390  149.2860 C   0  0  0  0  0  3  0  0  0  0  0  0
  136.7550  136.5320  150.2150 C   0  0  0  0  0  0  0  0  0  0  0  0
  136.7750  135.3470  150.9600 C   0  0  0  0  0  3  0  0  0  0  0  0
  135.7610  134.4010  150.8090 C   0  0  0  0  0  3  0  0  0  0  0  0
  134.7190  134.6410  149.9120 C   0  0  0  0  0  0  0  0  0  0  0  0
  132.7450  137.0650  148.5580 C   0  0  0  0  0  1  0  0  0  0  0  0
  133.6110  135.9670  148.3050 O   0  0  0  0  0  0  0  0  0  0  0  0
  133.7110  133.7200  149.7840 O   0  0  0  0  0  0  0  0  0  0  0  0
  133.8500  132.9410  149.2840 H   0  0  0  0  0  0  0  0  0  0  0  0
  139.0210  138.4290  152.7150 C   0  0  0  0  0  2  0  0  0  0  0  0
  138.5870  137.9300  154.0760 C   0  0  0  0  0  0  0  0  0  0  0  0
  139.3820  138.1530  155.2050 C   0  0  0  0  0  3  0  0  0  0  0  0
  138.9350  137.7870  156.4760 C   0  0  0  0  0  3  0  0  0  0  0  0
  137.6920  137.1710  156.6340 C   0  0  0  0  0  0  0  0  0  0  0  0
  136.9170  136.8610  155.5070 C   0  0  0  0  0  0  0  0  0  0  0  0
  137.3670  137.2570  154.2380 C   0  0  0  0  0  3  0  0  0  0  0  0
  135.6840  136.2660  155.4940 O   0  0  0  0  0  0  0  0  0  0  0  0
  135.3120  135.6140  154.2860 C   0  0  0  0  0  1  0  0  0  0  0  0
  137.1400  136.9090  157.9170 O   0  0  0  0  0  0  0  0  0  0  0  0
  136.7370  137.8360  158.8820 C   0  0  0  0  0  0  0  0  0  0  0  0
  137.0600  137.2990  160.2480 C   0  0  0  0  0  1  0  0  0  0  0  0
  136.1670  138.9000  158.6950 O   0  0  0  0  0  0  0  0  0  0  0  0
  1  2  1  6  0  0  0
  1 16  1  0  0  0  0
  3  4  1  6  0  0  0
  3  1  1  0  0  0  0
  5  3  1  0  0  0  0
  6  7  2  0  0  0  0
  6 11  1  0  0  0  0
  7  8  1  0  0  0  0
  8  5  1  0  0  0  0
  8  9  2  0  0  0  0
 10  9  1  0  0  0  0
 11 10  2  0  0  0  0
 13 12  1  0  0  0  0
 13  6  1  0  0  0  0
 14 11  1  0  0  0  0
 15 14  1  0  0  0  0
 16 17  1  0  0  0  0
 17 22  2  0  0  0  0
 17 18  1  0  0  0  0
 18 19  2  0  0  0  0
 19 20  1  0  0  0  0
 20 25  1  0  0  0  0
 21 20  2  0  0  0  0
 22 21  1  0  0  0  0
 23 21  1  0  0  0  0
 24 23  1  0  0  0  0
 25 26  1  0  0  0  0
 26 27  1  0  0  0  0
 28 26  2  0  0  0  0
M  END
>  <MODEL>
5

>  <REMARK>
 VINA RESULT:    -7.262      5.272      8.321
 INTER + INTRA:         -12.365
 INTER:                 -10.593
 INTRA:                  -1.772
 UNBOUND:                -1.071
  Name = CHEMBL4075542
  15 active torsions:
  status: ('A' for Active; 'I' for Inactive)
    1  A    between atoms: C_1  and  O_2
    2  A    between atoms: O_2  and  C_3
    3  A    between atoms: C_5  and  C_6
    4  A    between atoms: C_6  and  C_7
    5  A    between atoms: C_7  and  C_8
    6  A    between atoms: C_7  and  C_9
    7  A    between atoms: C_9  and  C_10
    8  A    between atoms: C_9  and  C_11
    9  A    between atoms: C_11  and  C_12
   10  A    between atoms: C_15  and  O_16
   11  A    between atoms: O_16  and  C_17
   12  A    between atoms: C_17  and  C_18
   13  A    between atoms: C_20  and  O_21
   14  A    between atoms: O_21  and  C_22
   15  A    between atoms: C_26  and  O_27
                            x       y       z     vdW  Elec       q    Type
                         _______ _______ _______ _____ _____    ______ ____

>  <TORSDO>
F 10

>  <SCORE>
-7.262

>  <RMSD_LB>
5.272

>  <RMSD_UB>
8.321

$$$$
CHEMBL4075542
 OpenBabel10172500333D

 28 29  0  0  1  0  0  0  0  0999 V2000
  135.5990  134.3590  145.6880 C   0  0  2  0  0  3  0  0  0  0  0  0
  135.4440  135.1360  144.3680 C   0  0  0  0  0  1  0  0  0  0  0  0
  136.7850  133.3380  145.6040 C   0  0  2  0  0  3  0  0  0  0  0  0
  136.3030  131.9480  145.1560 C   0  0  0  0  0  1  0  0  0  0  0  0
  137.5430  133.2330  146.9590 C   0  0  0  0  0  2  0  0  0  0  0  0
  138.7180  136.1560  149.1270 C   0  0  0  0  0  0  0  0  0  0  0  0
  138.1450  134.9460  148.7240 C   0  0  0  0  0  3  0  0  0  0  0  0
  138.2370  134.5080  147.3920 C   0  0  0  0  0  0  0  0  0  0  0  0
  138.9690  135.2700  146.4730 C   0  0  0  0  0  3  0  0  0  0  0  0
  139.5670  136.4670  146.8670 C   0  0  0  0  0  3  0  0  0  0  0  0
  139.4320  136.9080  148.1840 C   0  0  0  0  0  0  0  0  0  0  0  0
  137.4120  137.3440  150.7260 C   0  0  0  0  0  1  0  0  0  0  0  0
  138.6220  136.6800  150.3900 O   0  0  0  0  0  0  0  0  0  0  0  0
  140.0010  138.0960  148.5620 O   0  0  0  0  0  0  0  0  0  0  0  0
  140.6470  138.5000  148.0180 H   0  0  0  0  0  0  0  0  0  0  0  0
  134.2560  133.6710  146.0710 C   0  0  0  0  0  2  0  0  0  0  0  0
  133.9660  133.6530  147.5570 C   0  0  0  0  0  0  0  0  0  0  0  0
  134.1600  132.4890  148.3080 C   0  0  0  0  0  3  0  0  0  0  0  0
  133.9940  132.4990  149.6950 C   0  0  0  0  0  3  0  0  0  0  0  0
  133.6100  133.6720  150.3480 C   0  0  0  0  0  0  0  0  0  0  0  0
  133.3270  134.8270  149.6040 C   0  0  0  0  0  0  0  0  0  0  0  0
  133.5210  134.8090  148.2150 C   0  0  0  0  0  3  0  0  0  0  0  0
  132.9440  136.0470  150.0930 O   0  0  0  0  0  0  0  0  0  0  0  0
  132.6650  137.0530  149.1260 C   0  0  0  0  0  1  0  0  0  0  0  0
  133.5650  133.7620  151.7660 O   0  0  0  0  0  0  0  0  0  0  0  0
  134.6160  134.0500  152.6400 C   0  0  0  0  0  0  0  0  0  0  0  0
  135.8820  134.2210  151.8490 C   0  0  0  0  0  1  0  0  0  0  0  0
  134.5700  134.1160  153.8590 O   0  0  0  0  0  0  0  0  0  0  0  0
  1  2  1  6  0  0  0
  1 16  1  0  0  0  0
  3  4  1  1  0  0  0
  3  1  1  0  0  0  0
  3  5  1  0  0  0  0
  5  8  1  0  0  0  0
  6 13  1  0  0  0  0
  7  6  1  0  0  0  0
  8  7  2  0  0  0  0
  9 10  2  0  0  0  0
  9  8  1  0  0  0  0
 10 11  1  0  0  0  0
 11 14  1  0  0  0  0
 11  6  2  0  0  0  0
 13 12  1  0  0  0  0
 15 14  1  0  0  0  0
 16 17  1  0  0  0  0
 17 22  2  0  0  0  0
 17 18  1  0  0  0  0
 18 19  2  0  0  0  0
 19 20  1  0  0  0  0
 20 25  1  0  0  0  0
 21 23  1  0  0  0  0
 21 20  2  0  0  0  0
 22 21  1  0  0  0  0
 24 23  1  0  0  0  0
 25 26  1  0  0  0  0
 26 28  2  0  0  0  0
 27 26  1  0  0  0  0
M  END
>  <MODEL>
6

>  <REMARK>
 VINA RESULT:    -7.163      6.643     11.114
 INTER + INTRA:         -12.213
 INTER:                 -10.148
 INTRA:                  -2.065
 UNBOUND:                -1.071
  Name = CHEMBL4075542
  15 active torsions:
  status: ('A' for Active; 'I' for Inactive)
    1  A    between atoms: C_1  and  O_2
    2  A    between atoms: O_2  and  C_3
    3  A    between atoms: C_5  and  C_6
    4  A    between atoms: C_6  and  C_7
    5  A    between atoms: C_7  and  C_8
    6  A    between atoms: C_7  and  C_9
    7  A    between atoms: C_9  and  C_10
    8  A    between atoms: C_9  and  C_11
    9  A    between atoms: C_11  and  C_12
   10  A    between atoms: C_15  and  O_16
   11  A    between atoms: O_16  and  C_17
   12  A    between atoms: C_17  and  C_18
   13  A    between atoms: C_20  and  O_21
   14  A    between atoms: O_21  and  C_22
   15  A    between atoms: C_26  and  O_27
                            x       y       z     vdW  Elec       q    Type
                         _______ _______ _______ _____ _____    ______ ____

>  <TORSDO>
F 10

>  <SCORE>
-7.163

>  <RMSD_LB>
6.643

>  <RMSD_UB>
11.114

$$$$
CHEMBL4075542
 OpenBabel10172500333D

 28 29  0  0  1  0  0  0  0  0999 V2000
  139.6540  137.8780  150.6630 C   0  0  2  0  0  3  0  0  0  0  0  0
  138.9790  139.2580  150.5610 C   0  0  0  0  0  1  0  0  0  0  0  0
  138.6210  136.7270  150.4080 C   0  0  2  0  0  3  0  0  0  0  0  0
  138.9140  135.9880  149.0910 C   0  0  0  0  0  1  0  0  0  0  0  0
  137.1600  137.2630  150.4110 C   0  0  0  0  0  2  0  0  0  0  0  0
  134.0760  135.3410  151.6020 C   0  0  0  0  0  0  0  0  0  0  0  0
  135.0000  135.9950  150.7810 C   0  0  0  0  0  3  0  0  0  0  0  0
  136.2080  136.4900  151.3000 C   0  0  0  0  0  0  0  0  0  0  0  0
  136.5120  136.2670  152.6480 C   0  0  0  0  0  3  0  0  0  0  0  0
  135.6110  135.5950  153.4730 C   0  0  0  0  0  3  0  0  0  0  0  0
  134.3980  135.1450  152.9510 C   0  0  0  0  0  0  0  0  0  0  0  0
  132.8450  133.7740  150.2960 C   0  0  0  0  0  1  0  0  0  0  0  0
  132.8530  134.8820  151.1860 O   0  0  0  0  0  0  0  0  0  0  0  0
  133.5040  134.5060  153.7700 O   0  0  0  0  0  0  0  0  0  0  0  0
  133.6660  134.4540  154.6910 H   0  0  0  0  0  0  0  0  0  0  0  0
  140.3760  137.7280  152.0340 C   0  0  0  0  0  2  0  0  0  0  0  0
  141.8570  137.4370  151.9300 C   0  0  0  0  0  0  0  0  0  0  0  0
  142.4080  136.9470  150.7410 C   0  0  0  0  0  3  0  0  0  0  0  0
  143.7880  136.7780  150.6100 C   0  0  0  0  0  3  0  0  0  0  0  0
  144.6370  137.0770  151.6780 C   0  0  0  0  0  0  0  0  0  0  0  0
  144.0990  137.4870  152.9070 C   0  0  0  0  0  0  0  0  0  0  0  0
  142.7130  137.6760  153.0160 C   0  0  0  0  0  3  0  0  0  0  0  0
  144.7920  137.8180  154.0390 O   0  0  0  0  0  0  0  0  0  0  0  0
  144.6100  139.1420  154.5250 C   0  0  0  0  0  1  0  0  0  0  0  0
  146.0520  137.0520  151.5430 O   0  0  0  0  0  0  0  0  0  0  0  0
  146.9460  138.1130  151.7040 C   0  0  0  0  0  0  0  0  0  0  0  0
  148.0760  137.6740  152.5940 C   0  0  0  0  0  1  0  0  0  0  0  0
  146.8440  139.2440  151.2550 O   0  0  0  0  0  0  0  0  0  0  0  0
  1  2  1  1  0  0  0
  1 16  1  0  0  0  0
  3  4  1  6  0  0  0
  3  5  1  0  0  0  0
  3  1  1  0  0  0  0
  5  8  1  0  0  0  0
  6 11  1  0  0  0  0
  7  8  1  0  0  0  0
  7  6  2  0  0  0  0
  8  9  2  0  0  0  0
  9 10  1  0  0  0  0
 11 10  2  0  0  0  0
 11 14  1  0  0  0  0
 12 13  1  0  0  0  0
 13  6  1  0  0  0  0
 14 15  1  0  0  0  0
 17 16  1  0  0  0  0
 17 22  1  0  0  0  0
 18 17  2  0  0  0  0
 19 18  1  0  0  0  0
 19 20  2  0  0  0  0
 20 21  1  0  0  0  0
 21 22  2  0  0  0  0
 21 23  1  0  0  0  0
 23 24  1  0  0  0  0
 25 20  1  0  0  0  0
 25 26  1  0  0  0  0
 26 27  1  0  0  0  0
 28 26  2  0  0  0  0
M  END
>  <MODEL>
7

>  <REMARK>
 VINA RESULT:    -7.078      3.253      4.427
 INTER + INTRA:         -12.080
 INTER:                 -10.708
 INTRA:                  -1.372
 UNBOUND:                -1.071
  Name = CHEMBL4075542
  15 active torsions:
  status: ('A' for Active; 'I' for Inactive)
    1  A    between atoms: C_1  and  O_2
    2  A    between atoms: O_2  and  C_3
    3  A    between atoms: C_5  and  C_6
    4  A    between atoms: C_6  and  C_7
    5  A    between atoms: C_7  and  C_8
    6  A    between atoms: C_7  and  C_9
    7  A    between atoms: C_9  and  C_10
    8  A    between atoms: C_9  and  C_11
    9  A    between atoms: C_11  and  C_12
   10  A    between atoms: C_15  and  O_16
   11  A    between atoms: O_16  and  C_17
   12  A    between atoms: C_17  and  C_18
   13  A    between atoms: C_20  and  O_21
   14  A    between atoms: O_21  and  C_22
   15  A    between atoms: C_26  and  O_27
                            x       y       z     vdW  Elec       q    Type
                         _______ _______ _______ _____ _____    ______ ____

>  <TORSDO>
F 10

>  <SCORE>
-7.078

>  <RMSD_LB>
3.253

>  <RMSD_UB>
4.427

$$$$
CHEMBL4075542
 OpenBabel10172500333D

 28 29  0  0  1  0  0  0  0  0999 V2000
  134.7370  137.0150  144.7960 C   0  0  2  0  0  3  0  0  0  0  0  0
  134.2840  138.0810  143.7810 C   0  0  0  0  0  1  0  0  0  0  0  0
  135.8660  136.1100  144.1930 C   0  0  2  0  0  3  0  0  0  0  0  0
  135.5100  134.6190  144.2990 C   0  0  0  0  0  1  0  0  0  0  0  0
  137.2390  136.3850  144.8730 C   0  0  0  0  0  2  0  0  0  0  0  0
  136.8920  137.6990  148.4470 C   0  0  0  0  0  0  0  0  0  0  0  0
  137.0210  136.8360  147.3550 C   0  0  0  0  0  3  0  0  0  0  0  0
  137.1780  137.3360  146.0500 C   0  0  0  0  0  0  0  0  0  0  0  0
  137.2690  138.7190  145.8570 C   0  0  0  0  0  3  0  0  0  0  0  0
  137.1670  139.5910  146.9400 C   0  0  0  0  0  3  0  0  0  0  0  0
  136.9700  139.0810  148.2240 C   0  0  0  0  0  0  0  0  0  0  0  0
  137.7600  136.6660  150.4090 C   0  0  0  0  0  1  0  0  0  0  0  0
  136.6770  137.2940  149.7380 O   0  0  0  0  0  0  0  0  0  0  0  0
  136.8460  139.9410  149.2840 O   0  0  0  0  0  0  0  0  0  0  0  0
  136.8460  139.6090  150.1590 H   0  0  0  0  0  0  0  0  0  0  0  0
  133.5160  136.1840  145.2890 C   0  0  0  0  0  2  0  0  0  0  0  0
  133.4450  136.0110  146.7910 C   0  0  0  0  0  0  0  0  0  0  0  0
  133.3850  137.1230  147.6360 C   0  0  0  0  0  3  0  0  0  0  0  0
  133.2140  136.9650  149.0130 C   0  0  0  0  0  3  0  0  0  0  0  0
  133.1200  135.6870  149.5670 C   0  0  0  0  0  0  0  0  0  0  0  0
  133.2640  134.5570  148.7480 C   0  0  0  0  0  0  0  0  0  0  0  0
  133.4120  134.7310  147.3640 C   0  0  0  0  0  3  0  0  0  0  0  0
  133.1950  133.2460  149.1350 O   0  0  0  0  0  0  0  0  0  0  0  0
  134.2120  132.3860  148.6330 C   0  0  0  0  0  1  0  0  0  0  0  0
  132.8080  135.4830  150.9380 O   0  0  0  0  0  0  0  0  0  0  0  0
  133.6850  135.4860  152.0260 C   0  0  0  0  0  0  0  0  0  0  0  0
  134.0490  134.0690  152.3710 C   0  0  0  0  0  1  0  0  0  0  0  0
  134.0800  136.4550  152.6570 O   0  0  0  0  0  0  0  0  0  0  0  0
  1  2  1  6  0  0  0
  1 16  1  0  0  0  0
  3  4  1  1  0  0  0
  3  1  1  0  0  0  0
  3  5  1  0  0  0  0
  5  8  1  0  0  0  0
  6 13  1  0  0  0  0
  7  6  2  0  0  0  0
  8  7  1  0  0  0  0
  9  8  2  0  0  0  0
  9 10  1  0  0  0  0
 10 11  2  0  0  0  0
 11  6  1  0  0  0  0
 11 14  1  0  0  0  0
 13 12  1  0  0  0  0
 14 15  1  0  0  0  0
 16 17  1  0  0  0  0
 17 22  2  0  0  0  0
 17 18  1  0  0  0  0
 18 19  2  0  0  0  0
 19 20  1  0  0  0  0
 20 25  1  0  0  0  0
 21 23  1  0  0  0  0
 21 20  2  0  0  0  0
 22 21  1  0  0  0  0
 24 23  1  0  0  0  0
 25 26  1  0  0  0  0
 26 27  1  0  0  0  0
 26 28  2  0  0  0  0
M  END
>  <MODEL>
8

>  <REMARK>
 VINA RESULT:    -6.847      7.360     11.283
 INTER + INTRA:         -11.720
 INTER:                  -9.481
 INTRA:                  -2.240
 UNBOUND:                -1.071
  Name = CHEMBL4075542
  15 active torsions:
  status: ('A' for Active; 'I' for Inactive)
    1  A    between atoms: C_1  and  O_2
    2  A    between atoms: O_2  and  C_3
    3  A    between atoms: C_5  and  C_6
    4  A    between atoms: C_6  and  C_7
    5  A    between atoms: C_7  and  C_8
    6  A    between atoms: C_7  and  C_9
    7  A    between atoms: C_9  and  C_10
    8  A    between atoms: C_9  and  C_11
    9  A    between atoms: C_11  and  C_12
   10  A    between atoms: C_15  and  O_16
   11  A    between atoms: O_16  and  C_17
   12  A    between atoms: C_17  and  C_18
   13  A    between atoms: C_20  and  O_21
   14  A    between atoms: O_21  and  C_22
   15  A    between atoms: C_26  and  O_27
                            x       y       z     vdW  Elec       q    Type
                         _______ _______ _______ _____ _____    ______ ____

>  <TORSDO>
F 10

>  <SCORE>
-6.847

>  <RMSD_LB>
7.360

>  <RMSD_UB>
11.283

$$$$
CHEMBL4075542
 OpenBabel10172500333D

 28 29  0  0  1  0  0  0  0  0999 V2000
  139.3540  138.2280  151.4810 C   0  0  2  0  0  3  0  0  0  0  0  0
  139.6130  139.6950  151.0920 C   0  0  0  0  0  1  0  0  0  0  0  0
  140.4590  137.7030  152.4600 C   0  0  2  0  0  3  0  0  0  0  0  0
  140.6630  138.6590  153.6460 C   0  0  0  0  0  1  0  0  0  0  0  0
  141.8090  137.4680  151.7210 C   0  0  0  0  0  2  0  0  0  0  0  0
  144.6250  139.8830  152.6450 C   0  0  0  0  0  0  0  0  0  0  0  0
  143.4710  139.3460  152.0680 C   0  0  0  0  0  3  0  0  0  0  0  0
  143.0170  138.0620  152.4140 C   0  0  0  0  0  0  0  0  0  0  0  0
  143.7020  137.3400  153.3990 C   0  0  0  0  0  3  0  0  0  0  0  0
  144.8410  137.8730  154.0010 C   0  0  0  0  0  3  0  0  0  0  0  0
  145.3020  139.1330  153.6160 C   0  0  0  0  0  0  0  0  0  0  0  0
  145.0830  141.5020  150.9580 C   0  0  0  0  0  1  0  0  0  0  0  0
  145.1650  141.1000  152.3190 O   0  0  0  0  0  0  0  0  0  0  0  0
  146.4360  139.6450  154.1930 O   0  0  0  0  0  0  0  0  0  0  0  0
  147.1330  139.9610  153.6540 H   0  0  0  0  0  0  0  0  0  0  0  0
  139.2270  137.3440  150.2060 C   0  0  0  0  0  2  0  0  0  0  0  0
  138.0130  136.4410  150.1920 C   0  0  0  0  0  0  0  0  0  0  0  0
  137.0540  136.5160  151.2070 C   0  0  0  0  0  3  0  0  0  0  0  0
  135.8820  135.7590  151.1400 C   0  0  0  0  0  3  0  0  0  0  0  0
  135.6630  134.8970  150.0630 C   0  0  0  0  0  0  0  0  0  0  0  0
  136.6510  134.7420  149.0790 C   0  0  0  0  0  0  0  0  0  0  0  0
  137.8110  135.5270  149.1460 C   0  0  0  0  0  3  0  0  0  0  0  0
  136.5870  133.9450  147.9680 O   0  0  0  0  0  0  0  0  0  0  0  0
  136.1680  134.5760  146.7640 C   0  0  0  0  0  1  0  0  0  0  0  0
  134.4290  134.2160  149.8850 O   0  0  0  0  0  0  0  0  0  0  0  0
  133.2980  134.6580  149.1940 C   0  0  0  0  0  0  0  0  0  0  0  0
  132.7810  133.5430  148.3290 C   0  0  0  0  0  1  0  0  0  0  0  0
  132.8020  135.7740  149.2210 O   0  0  0  0  0  0  0  0  0  0  0  0
  1  2  1  6  0  0  0
  1  3  1  0  0  0  0
  3  4  1  1  0  0  0
  5  8  1  0  0  0  0
  5  3  1  0  0  0  0
  6 11  1  0  0  0  0
  7  8  1  0  0  0  0
  7  6  2  0  0  0  0
  8  9  2  0  0  0  0
  9 10  1  0  0  0  0
 11 10  2  0  0  0  0
 11 14  1  0  0  0  0
 12 13  1  0  0  0  0
 13  6  1  0  0  0  0
 15 14  1  0  0  0  0
 16  1  1  0  0  0  0
 17 16  1  0  0  0  0
 17 18  1  0  0  0  0
 19 18  2  0  0  0  0
 20 19  1  0  0  0  0
 21 22  1  0  0  0  0
 21 20  2  0  0  0  0
 22 17  2  0  0  0  0
 23 21  1  0  0  0  0
 24 23  1  0  0  0  0
 25 20  1  0  0  0  0
 26 28  2  0  0  0  0
 26 25  1  0  0  0  0
 27 26  1  0  0  0  0
M  END
>  <MODEL>
9

>  <REMARK>
 VINA RESULT:    -6.515      4.011      9.799
 INTER + INTRA:         -11.205
 INTER:                 -10.134
 INTRA:                  -1.071
 UNBOUND:                -1.071
  Name = CHEMBL4075542
  15 active torsions:
  status: ('A' for Active; 'I' for Inactive)
    1  A    between atoms: C_1  and  O_2
    2  A    between atoms: O_2  and  C_3
    3  A    between atoms: C_5  and  C_6
    4  A    between atoms: C_6  and  C_7
    5  A    between atoms: C_7  and  C_8
    6  A    between atoms: C_7  and  C_9
    7  A    between atoms: C_9  and  C_10
    8  A    between atoms: C_9  and  C_11
    9  A    between atoms: C_11  and  C_12
   10  A    between atoms: C_15  and  O_16
   11  A    between atoms: O_16  and  C_17
   12  A    between atoms: C_17  and  C_18
   13  A    between atoms: C_20  and  O_21
   14  A    between atoms: O_21  and  C_22
   15  A    between atoms: C_26  and  O_27
                            x       y       z     vdW  Elec       q    Type
                         _______ _______ _______ _____ _____    ______ ____

>  <TORSDO>
F 10

>  <SCORE>
-6.515

>  <RMSD_LB>
4.011

>  <RMSD_UB>
9.799

$$$$
