CHEMBL1906696
 OpenBabel10172500133D

 28 29  0  0  0  0  0  0  0  0999 V2000
  144.6240  137.5550  154.1210 N   0  0  0  0  0  0  0  0  0  0  0  0
  145.4360  138.6250  154.3670 C   0  0  0  0  0  0  0  0  0  0  0  0
  145.0150  139.7820  154.5020 O   0  0  0  0  0  0  0  0  0  0  0  0
  145.0210  136.6570  154.0380 H   0  0  0  0  0  0  0  0  0  0  0  0
  143.1980  137.7120  153.9820 C   0  0  0  0  0  2  0  0  0  0  0  0
  143.1090  136.9470  150.2120 C   0  0  0  0  0  0  0  0  0  0  0  0
  143.5750  137.1940  151.5190 C   0  0  0  0  0  3  0  0  0  0  0  0
  142.6980  137.4550  152.5760 C   0  0  0  0  0  0  0  0  0  0  0  0
  141.3300  137.5130  152.3020 C   0  0  0  0  0  3  0  0  0  0  0  0
  140.8410  137.3120  151.0020 C   0  0  0  0  0  0  0  0  0  0  0  0
  141.7250  136.9740  149.9540 C   0  0  0  0  0  0  0  0  0  0  0  0
  144.5560  138.0070  148.6750 C   0  0  0  0  0  1  0  0  0  0  0  0
  144.0040  136.7920  149.1820 O   0  0  0  0  0  0  0  0  0  0  0  0
  139.5040  137.3990  150.6870 O   0  0  0  0  0  0  0  0  0  0  0  0
  138.9160  138.6940  150.7560 C   0  0  0  0  0  1  0  0  0  0  0  0
  141.1300  136.7630  148.7300 O   0  0  0  0  0  0  0  0  0  0  0  0
  140.9760  135.4180  148.2980 C   0  0  0  0  0  1  0  0  0  0  0  0
  146.8970  138.2540  154.4610 C   0  0  0  0  0  2  0  0  0  0  0  0
  147.7720  139.2310  153.6920 C   0  0  0  0  0  2  0  0  0  0  0  0
  148.1840  140.4400  154.5350 C   0  0  0  0  0  2  0  0  0  0  0  0
  148.5910  141.5860  153.6290 C   0  0  0  0  0  0  0  0  0  0  0  0
  149.6270  142.2250  153.8030 O   0  0  0  0  0  0  0  0  0  0  0  0
  147.6980  141.9650  152.5050 C   0  0  0  0  0  0  0  0  0  0  0  0
  148.1420  142.0380  151.1850 C   0  0  0  0  0  3  0  0  0  0  0  0
  147.2450  142.3680  150.1700 C   0  0  0  0  0  3  0  0  0  0  0  0
  145.9040  142.6270  150.4730 C   0  0  0  0  0  3  0  0  0  0  0  0
  145.4620  142.5630  151.7910 C   0  0  0  0  0  3  0  0  0  0  0  0
  146.3530  142.2330  152.8070 C   0  0  0  0  0  3  0  0  0  0  0  0
  1  2  1  0  0  0  0
  2 18  1  0  0  0  0
  2  3  2  0  0  0  0
  4  1  1  0  0  0  0
  5  1  1  0  0  0  0
  6  7  1  0  0  0  0
  7  8  2  0  0  0  0
  8  5  1  0  0  0  0
  9  8  1  0  0  0  0
 10  9  2  0  0  0  0
 11  6  2  0  0  0  0
 11 10  1  0  0  0  0
 12 13  1  0  0  0  0
 13  6  1  0  0  0  0
 14 15  1  0  0  0  0
 14 10  1  0  0  0  0
 16 11  1  0  0  0  0
 17 16  1  0  0  0  0
 19 18  1  0  0  0  0
 19 20  1  0  0  0  0
 21 22  2  0  0  0  0
 21 20  1  0  0  0  0
 23 28  1  0  0  0  0
 23 21  1  0  0  0  0
 24 23  2  0  0  0  0
 25 26  2  0  0  0  0
 25 24  1  0  0  0  0
 26 27  1  0  0  0  0
 27 28  2  0  0  0  0
M  END
>  <MODEL>
1

>  <REMARK>
 VINA RESULT:    -7.246      0.000      0.000
 INTER + INTRA:         -12.642
 INTER:                 -11.553
 INTRA:                  -1.089
 UNBOUND:                -1.160
  Name = CHEMBL1906696
  13 active torsions:
  status: ('A' for Active; 'I' for Inactive)
    1  A    between atoms: C_1  and  O_2
    2  A    between atoms: O_2  and  C_3
    3  A    between atoms: C_5  and  C_6
    4  A    between atoms: C_6  and  N_7
    5  A    between atoms: C_8  and  C_10
    6  A    between atoms: C_10  and  C_11
    7  A    between atoms: C_11  and  C_12
    8  A    between atoms: C_12  and  C_13
    9  A    between atoms: C_13  and  C_15
   10  A    between atoms: C_22  and  O_23
   11  A    between atoms: O_23  and  C_24
   12  A    between atoms: C_25  and  O_26
   13  A    between atoms: O_26  and  C_27
                            x       y       z     vdW  Elec       q    Type
                         _______ _______ _______ _____ _____    ______ ____

>  <TORSDO>
F 10

>  <SCORE>
-7.246

>  <RMSD_LB>
0.000

>  <RMSD_UB>
0.000

$$$$
CHEMBL1906696
 OpenBabel10172500133D

 28 29  0  0  0  0  0  0  0  0999 V2000
  145.5630  137.5610  149.7840 N   0  0  0  0  0  0  0  0  0  0  0  0
  146.3430  138.6220  150.1430 C   0  0  0  0  0  0  0  0  0  0  0  0
  146.6640  138.8650  151.3140 O   0  0  0  0  0  0  0  0  0  0  0  0
  145.3550  137.4140  148.8320 H   0  0  0  0  0  0  0  0  0  0  0  0
  145.0370  136.6490  150.7690 C   0  0  0  0  0  2  0  0  0  0  0  0
  141.2090  137.0310  150.6590 C   0  0  0  0  0  0  0  0  0  0  0  0
  142.5400  136.7560  150.2850 C   0  0  0  0  0  3  0  0  0  0  0  0
  143.6080  136.9520  151.1670 C   0  0  0  0  0  0  0  0  0  0  0  0
  143.3330  137.4770  152.4320 C   0  0  0  0  0  3  0  0  0  0  0  0
  142.0220  137.7990  152.8150 C   0  0  0  0  0  0  0  0  0  0  0  0
  140.9400  137.5280  151.9480 C   0  0  0  0  0  0  0  0  0  0  0  0
  140.0090  138.0690  148.9100 C   0  0  0  0  0  1  0  0  0  0  0  0
  140.2010  136.9200  149.7340 O   0  0  0  0  0  0  0  0  0  0  0  0
  141.7190  138.3530  154.0380 O   0  0  0  0  0  0  0  0  0  0  0  0
  142.7190  139.1710  154.6330 C   0  0  0  0  0  1  0  0  0  0  0  0
  139.6970  137.8490  152.4440 O   0  0  0  0  0  0  0  0  0  0  0  0
  139.2760  139.2020  152.3330 C   0  0  0  0  0  1  0  0  0  0  0  0
  146.7790  139.4650  148.9690 C   0  0  0  0  0  2  0  0  0  0  0  0
  145.9440  140.7300  148.8490 C   0  0  0  0  0  2  0  0  0  0  0  0
  146.7230  141.9870  149.2460 C   0  0  0  0  0  2  0  0  0  0  0  0
  146.3110  142.4300  150.6370 C   0  0  0  0  0  0  0  0  0  0  0  0
  145.2410  142.9950  150.8560 O   0  0  0  0  0  0  0  0  0  0  0  0
  147.2400  142.1950  151.7700 C   0  0  0  0  0  0  0  0  0  0  0  0
  148.6200  142.0870  151.6000 C   0  0  0  0  0  3  0  0  0  0  0  0
  149.4420  141.8980  152.7110 C   0  0  0  0  0  3  0  0  0  0  0  0
  148.8850  141.8180  153.9920 C   0  0  0  0  0  3  0  0  0  0  0  0
  147.5080  141.9180  154.1620 C   0  0  0  0  0  3  0  0  0  0  0  0
  146.6850  142.1060  153.0570 C   0  0  0  0  0  3  0  0  0  0  0  0
  1  2  1  0  0  0  0
  1  5  1  0  0  0  0
  2  3  2  0  0  0  0
  4  1  1  0  0  0  0
  5  8  1  0  0  0  0
  6 11  1  0  0  0  0
  7  6  2  0  0  0  0
  7  8  1  0  0  0  0
  8  9  2  0  0  0  0
  9 10  1  0  0  0  0
 10 14  1  0  0  0  0
 11 16  1  0  0  0  0
 11 10  2  0  0  0  0
 12 13  1  0  0  0  0
 13  6  1  0  0  0  0
 14 15  1  0  0  0  0
 17 16  1  0  0  0  0
 18  2  1  0  0  0  0
 19 18  1  0  0  0  0
 19 20  1  0  0  0  0
 20 21  1  0  0  0  0
 21 22  2  0  0  0  0
 21 23  1  0  0  0  0
 23 28  1  0  0  0  0
 24 23  2  0  0  0  0
 24 25  1  0  0  0  0
 25 26  2  0  0  0  0
 26 27  1  0  0  0  0
 28 27  2  0  0  0  0
M  END
>  <MODEL>
2

>  <REMARK>
 VINA RESULT:    -7.214      2.244      3.872
 INTER + INTRA:         -12.591
 INTER:                 -11.229
 INTRA:                  -1.362
 UNBOUND:                -1.160
  Name = CHEMBL1906696
  13 active torsions:
  status: ('A' for Active; 'I' for Inactive)
    1  A    between atoms: C_1  and  O_2
    2  A    between atoms: O_2  and  C_3
    3  A    between atoms: C_5  and  C_6
    4  A    between atoms: C_6  and  N_7
    5  A    between atoms: C_8  and  C_10
    6  A    between atoms: C_10  and  C_11
    7  A    between atoms: C_11  and  C_12
    8  A    between atoms: C_12  and  C_13
    9  A    between atoms: C_13  and  C_15
   10  A    between atoms: C_22  and  O_23
   11  A    between atoms: O_23  and  C_24
   12  A    between atoms: C_25  and  O_26
   13  A    between atoms: O_26  and  C_27
                            x       y       z     vdW  Elec       q    Type
                         _______ _______ _______ _____ _____    ______ ____

>  <TORSDO>
F 10

>  <SCORE>
-7.214

>  <RMSD_LB>
2.244

>  <RMSD_UB>
3.872

$$$$
CHEMBL1906696
 OpenBabel10172500133D

 28 29  0  0  0  0  0  0  0  0999 V2000
  146.5180  137.9650  153.6040 N   0  0  0  0  0  0  0  0  0  0  0  0
  147.3890  138.5470  154.4800 C   0  0  0  0  0  0  0  0  0  0  0  0
  147.3160  138.4050  155.7070 O   0  0  0  0  0  0  0  0  0  0  0  0
  146.6390  138.1060  152.6370 H   0  0  0  0  0  0  0  0  0  0  0  0
  145.4240  137.1480  154.0660 C   0  0  0  0  0  2  0  0  0  0  0  0
  141.7840  137.8170  153.0130 C   0  0  0  0  0  0  0  0  0  0  0  0
  142.9490  137.6770  153.7930 C   0  0  0  0  0  3  0  0  0  0  0  0
  144.1700  137.2920  153.2300 C   0  0  0  0  0  0  0  0  0  0  0  0
  144.2050  136.9980  151.8650 C   0  0  0  0  0  3  0  0  0  0  0  0
  143.0510  137.0900  151.0730 C   0  0  0  0  0  0  0  0  0  0  0  0
  141.8390  137.5530  151.6310 C   0  0  0  0  0  0  0  0  0  0  0  0
  140.6450  138.2580  155.0350 C   0  0  0  0  0  1  0  0  0  0  0  0
  140.5840  138.1020  153.6180 O   0  0  0  0  0  0  0  0  0  0  0  0
  143.0390  136.7730  149.7340 O   0  0  0  0  0  0  0  0  0  0  0  0
  143.4090  135.4420  149.3900 C   0  0  0  0  0  1  0  0  0  0  0  0
  140.7820  137.6380  150.7520 O   0  0  0  0  0  0  0  0  0  0  0  0
  140.4600  138.9210  150.2350 C   0  0  0  0  0  1  0  0  0  0  0  0
  148.4520  139.3760  153.7990 C   0  0  0  0  0  2  0  0  0  0  0  0
  148.6610  140.7060  154.5050 C   0  0  0  0  0  2  0  0  0  0  0  0
  148.3810  141.9040  153.5950 C   0  0  0  0  0  2  0  0  0  0  0  0
  146.8870  142.0440  153.3720 C   0  0  0  0  0  0  0  0  0  0  0  0
  146.1270  142.4410  154.2530 O   0  0  0  0  0  0  0  0  0  0  0  0
  146.3190  141.6700  152.0530 C   0  0  0  0  0  0  0  0  0  0  0  0
  145.1500  140.9210  151.9240 C   0  0  0  0  0  3  0  0  0  0  0  0
  144.6500  140.6300  150.6550 C   0  0  0  0  0  3  0  0  0  0  0  0
  145.3190  141.0870  149.5140 C   0  0  0  0  0  3  0  0  0  0  0  0
  146.4900  141.8280  149.6420 C   0  0  0  0  0  3  0  0  0  0  0  0
  146.9910  142.1200  150.9050 C   0  0  0  0  0  3  0  0  0  0  0  0
  1  5  1  0  0  0  0
  1  2  1  0  0  0  0
  2  3  2  0  0  0  0
  4  1  1  0  0  0  0
  6 13  1  0  0  0  0
  6  7  1  0  0  0  0
  8  7  2  0  0  0  0
  8  5  1  0  0  0  0
  9  8  1  0  0  0  0
 10 11  1  0  0  0  0
 10  9  2  0  0  0  0
 11  6  2  0  0  0  0
 13 12  1  0  0  0  0
 14 10  1  0  0  0  0
 15 14  1  0  0  0  0
 16 11  1  0  0  0  0
 17 16  1  0  0  0  0
 18  2  1  0  0  0  0
 18 19  1  0  0  0  0
 20 19  1  0  0  0  0
 21 20  1  0  0  0  0
 21 22  2  0  0  0  0
 23 21  1  0  0  0  0
 24 23  1  0  0  0  0
 25 24  2  0  0  0  0
 26 27  2  0  0  0  0
 26 25  1  0  0  0  0
 27 28  1  0  0  0  0
 28 23  2  0  0  0  0
M  END
>  <MODEL>
3

>  <REMARK>
 VINA RESULT:    -6.982      1.623      3.204
 INTER + INTRA:         -12.223
 INTER:                 -10.396
 INTRA:                  -1.827
 UNBOUND:                -1.160
  Name = CHEMBL1906696
  13 active torsions:
  status: ('A' for Active; 'I' for Inactive)
    1  A    between atoms: C_1  and  O_2
    2  A    between atoms: O_2  and  C_3
    3  A    between atoms: C_5  and  C_6
    4  A    between atoms: C_6  and  N_7
    5  A    between atoms: C_8  and  C_10
    6  A    between atoms: C_10  and  C_11
    7  A    between atoms: C_11  and  C_12
    8  A    between atoms: C_12  and  C_13
    9  A    between atoms: C_13  and  C_15
   10  A    between atoms: C_22  and  O_23
   11  A    between atoms: O_23  and  C_24
   12  A    between atoms: C_25  and  O_26
   13  A    between atoms: O_26  and  C_27
                            x       y       z     vdW  Elec       q    Type
                         _______ _______ _______ _____ _____    ______ ____

>  <TORSDO>
F 10

>  <SCORE>
-6.982

>  <RMSD_LB>
1.623

>  <RMSD_UB>
3.204

$$$$
CHEMBL1906696
 OpenBabel10172500133D

 28 29  0  0  0  0  0  0  0  0999 V2000
  136.0300  134.8150  153.5550 N   0  0  0  0  0  0  0  0  0  0  0  0
  135.7020  135.8180  154.4220 C   0  0  0  0  0  0  0  0  0  0  0  0
  134.5800  136.3410  154.4630 O   0  0  0  0  0  0  0  0  0  0  0  0
  136.9360  134.4300  153.5830 H   0  0  0  0  0  0  0  0  0  0  0  0
  135.0770  134.3060  152.6010 C   0  0  0  0  0  2  0  0  0  0  0  0
  136.7100  135.9580  149.5340 C   0  0  0  0  0  0  0  0  0  0  0  0
  136.4560  135.5430  150.8570 C   0  0  0  0  0  3  0  0  0  0  0  0
  135.3450  134.7600  151.1820 C   0  0  0  0  0  0  0  0  0  0  0  0
  134.4480  134.4280  150.1630 C   0  0  0  0  0  3  0  0  0  0  0  0
  134.6540  134.8630  148.8450 C   0  0  0  0  0  0  0  0  0  0  0  0
  135.8180  135.5890  148.5090 C   0  0  0  0  0  0  0  0  0  0  0  0
  137.5990  138.1330  149.7750 C   0  0  0  0  0  1  0  0  0  0  0  0
  137.7560  136.8070  149.2700 O   0  0  0  0  0  0  0  0  0  0  0  0
  133.7730  134.5880  147.8240 O   0  0  0  0  0  0  0  0  0  0  0  0
  132.6720  133.7430  148.1420 C   0  0  0  0  0  1  0  0  0  0  0  0
  135.9320  135.9310  147.1800 O   0  0  0  0  0  0  0  0  0  0  0  0
  135.5040  137.2300  146.7970 C   0  0  0  0  0  1  0  0  0  0  0  0
  136.8420  136.2190  155.3270 C   0  0  0  0  0  2  0  0  0  0  0  0
  137.3520  137.6130  154.9980 C   0  0  0  0  0  2  0  0  0  0  0  0
  138.1430  137.6550  153.6890 C   0  0  0  0  0  2  0  0  0  0  0  0
  139.3840  138.5100  153.8620 C   0  0  0  0  0  0  0  0  0  0  0  0
  139.3750  139.5540  154.5120 O   0  0  0  0  0  0  0  0  0  0  0  0
  140.6470  138.0850  153.2100 C   0  0  0  0  0  0  0  0  0  0  0  0
  141.8680  138.0580  153.8820 C   0  0  0  0  0  3  0  0  0  0  0  0
  143.0140  137.6170  153.2210 C   0  0  0  0  0  3  0  0  0  0  0  0
  142.9400  137.2040  151.8870 C   0  0  0  0  0  3  0  0  0  0  0  0
  141.7240  137.2380  151.2120 C   0  0  0  0  0  3  0  0  0  0  0  0
  140.5790  137.6760  151.8680 C   0  0  0  0  0  3  0  0  0  0  0  0
  1  4  1  0  0  0  0
  1  2  1  0  0  0  0
  2  3  2  0  0  0  0
  2 18  1  0  0  0  0
  5  1  1  0  0  0  0
  6  7  1  0  0  0  0
  7  8  2  0  0  0  0
  8  5  1  0  0  0  0
  9  8  1  0  0  0  0
 10  9  2  0  0  0  0
 11 10  1  0  0  0  0
 11  6  2  0  0  0  0
 13  6  1  0  0  0  0
 13 12  1  0  0  0  0
 14 15  1  0  0  0  0
 14 10  1  0  0  0  0
 16 11  1  0  0  0  0
 17 16  1  0  0  0  0
 19 18  1  0  0  0  0
 20 21  1  0  0  0  0
 20 19  1  0  0  0  0
 21 22  2  0  0  0  0
 23 21  1  0  0  0  0
 23 24  1  0  0  0  0
 25 24  2  0  0  0  0
 26 25  1  0  0  0  0
 27 28  1  0  0  0  0
 27 26  2  0  0  0  0
 28 23  2  0  0  0  0
M  END
>  <MODEL>
4

>  <REMARK>
 VINA RESULT:    -6.970      5.085      8.204
 INTER + INTRA:         -12.204
 INTER:                 -10.925
 INTRA:                  -1.279
 UNBOUND:                -1.160
  Name = CHEMBL1906696
  13 active torsions:
  status: ('A' for Active; 'I' for Inactive)
    1  A    between atoms: C_1  and  O_2
    2  A    between atoms: O_2  and  C_3
    3  A    between atoms: C_5  and  C_6
    4  A    between atoms: C_6  and  N_7
    5  A    between atoms: C_8  and  C_10
    6  A    between atoms: C_10  and  C_11
    7  A    between atoms: C_11  and  C_12
    8  A    between atoms: C_12  and  C_13
    9  A    between atoms: C_13  and  C_15
   10  A    between atoms: C_22  and  O_23
   11  A    between atoms: O_23  and  C_24
   12  A    between atoms: C_25  and  O_26
   13  A    between atoms: O_26  and  C_27
                            x       y       z     vdW  Elec       q    Type
                         _______ _______ _______ _____ _____    ______ ____

>  <TORSDO>
F 10

>  <SCORE>
-6.970

>  <RMSD_LB>
5.085

>  <RMSD_UB>
8.204

$$$$
CHEMBL1906696
 OpenBabel10172500133D

 28 29  0  0  0  0  0  0  0  0999 V2000
  146.6740  138.3110  153.5460 N   0  0  0  0  0  0  0  0  0  0  0  0
  147.2590  138.9510  154.6020 C   0  0  0  0  0  0  0  0  0  0  0  0
  146.7740  138.9660  155.7410 O   0  0  0  0  0  0  0  0  0  0  0  0
  147.1180  138.3250  152.6670 H   0  0  0  0  0  0  0  0  0  0  0  0
  145.4200  137.6160  153.6920 C   0  0  0  0  0  2  0  0  0  0  0  0
  145.1450  135.9840  150.2190 C   0  0  0  0  0  0  0  0  0  0  0  0
  145.6690  136.4690  151.4340 C   0  0  0  0  0  3  0  0  0  0  0  0
  144.8600  137.1020  152.3830 C   0  0  0  0  0  0  0  0  0  0  0  0
  143.5090  137.2900  152.0810 C   0  0  0  0  0  3  0  0  0  0  0  0
  142.9700  136.8540  150.8610 C   0  0  0  0  0  0  0  0  0  0  0  0
  143.7750  136.1480  149.9400 C   0  0  0  0  0  0  0  0  0  0  0  0
  147.3770  135.5330  149.5900 C   0  0  0  0  0  1  0  0  0  0  0  0
  145.9870  135.4570  149.2710 O   0  0  0  0  0  0  0  0  0  0  0  0
  141.6540  137.0550  150.5140 O   0  0  0  0  0  0  0  0  0  0  0  0
  141.1590  138.3850  150.6340 C   0  0  0  0  0  1  0  0  0  0  0  0
  143.1310  135.7360  148.7940 O   0  0  0  0  0  0  0  0  0  0  0  0
  142.8930  134.3440  148.6390 C   0  0  0  0  0  1  0  0  0  0  0  0
  148.5560  139.6330  154.2390 C   0  0  0  0  0  2  0  0  0  0  0  0
  148.4150  141.1460  154.2540 C   0  0  0  0  0  2  0  0  0  0  0  0
  148.2120  141.7310  152.8540 C   0  0  0  0  0  2  0  0  0  0  0  0
  146.7290  141.8750  152.5660 C   0  0  0  0  0  0  0  0  0  0  0  0
  145.9980  142.6030  153.2350 O   0  0  0  0  0  0  0  0  0  0  0  0
  146.1350  141.0950  151.4520 C   0  0  0  0  0  0  0  0  0  0  0  0
  144.7680  141.1020  151.1760 C   0  0  0  0  0  3  0  0  0  0  0  0
  144.2760  140.3730  150.0940 C   0  0  0  0  0  3  0  0  0  0  0  0
  145.1490  139.6350  149.2880 C   0  0  0  0  0  3  0  0  0  0  0  0
  146.5130  139.6200  149.5670 C   0  0  0  0  0  3  0  0  0  0  0  0
  147.0070  140.3460  150.6450 C   0  0  0  0  0  3  0  0  0  0  0  0
  1  5  1  0  0  0  0
  1  2  1  0  0  0  0
  2  3  2  0  0  0  0
  4  1  1  0  0  0  0
  6  7  1  0  0  0  0
  7  8  2  0  0  0  0
  8  5  1  0  0  0  0
  9  8  1  0  0  0  0
 10  9  2  0  0  0  0
 11  6  2  0  0  0  0
 11 10  1  0  0  0  0
 13 12  1  0  0  0  0
 13  6  1  0  0  0  0
 14 15  1  0  0  0  0
 14 10  1  0  0  0  0
 16 11  1  0  0  0  0
 17 16  1  0  0  0  0
 18 19  1  0  0  0  0
 18  2  1  0  0  0  0
 20 19  1  0  0  0  0
 21 20  1  0  0  0  0
 21 22  2  0  0  0  0
 23 21  1  0  0  0  0
 24 23  1  0  0  0  0
 25 24  2  0  0  0  0
 26 27  2  0  0  0  0
 26 25  1  0  0  0  0
 27 28  1  0  0  0  0
 28 23  2  0  0  0  0
M  END
>  <MODEL>
5

>  <REMARK>
 VINA RESULT:    -6.890      1.930      2.613
 INTER + INTRA:         -12.077
 INTER:                  -9.561
 INTRA:                  -2.516
 UNBOUND:                -1.160
  Name = CHEMBL1906696
  13 active torsions:
  status: ('A' for Active; 'I' for Inactive)
    1  A    between atoms: C_1  and  O_2
    2  A    between atoms: O_2  and  C_3
    3  A    between atoms: C_5  and  C_6
    4  A    between atoms: C_6  and  N_7
    5  A    between atoms: C_8  and  C_10
    6  A    between atoms: C_10  and  C_11
    7  A    between atoms: C_11  and  C_12
    8  A    between atoms: C_12  and  C_13
    9  A    between atoms: C_13  and  C_15
   10  A    between atoms: C_22  and  O_23
   11  A    between atoms: O_23  and  C_24
   12  A    between atoms: C_25  and  O_26
   13  A    between atoms: O_26  and  C_27
                            x       y       z     vdW  Elec       q    Type
                         _______ _______ _______ _____ _____    ______ ____

>  <TORSDO>
F 10

>  <SCORE>
-6.890

>  <RMSD_LB>
1.930

>  <RMSD_UB>
2.613

$$$$
CHEMBL1906696
 OpenBabel10172500133D

 28 29  0  0  0  0  0  0  0  0999 V2000
  145.6420  141.3320  151.9600 N   0  0  0  0  0  0  0  0  0  0  0  0
  146.8710  141.8810  151.7320 C   0  0  0  0  0  0  0  0  0  0  0  0
  147.3410  142.0490  150.5990 O   0  0  0  0  0  0  0  0  0  0  0  0
  145.3190  141.2390  152.8860 H   0  0  0  0  0  0  0  0  0  0  0  0
  144.8060  140.8870  150.8730 C   0  0  0  0  0  2  0  0  0  0  0  0
  142.4620  138.7550  153.0560 C   0  0  0  0  0  0  0  0  0  0  0  0
  143.5340  139.5720  152.6420 C   0  0  0  0  0  3  0  0  0  0  0  0
  143.6600  140.0040  151.3180 C   0  0  0  0  0  0  0  0  0  0  0  0
  142.7150  139.5670  150.3860 C   0  0  0  0  0  3  0  0  0  0  0  0
  141.6610  138.7210  150.7640 C   0  0  0  0  0  0  0  0  0  0  0  0
  141.4950  138.3500  152.1160 C   0  0  0  0  0  0  0  0  0  0  0  0
  142.0200  139.2170  155.3300 C   0  0  0  0  0  1  0  0  0  0  0  0
  142.4260  138.2720  154.3410 O   0  0  0  0  0  0  0  0  0  0  0  0
  140.7340  138.2410  149.8670 O   0  0  0  0  0  0  0  0  0  0  0  0
  140.8920  138.6420  148.5100 C   0  0  0  0  0  1  0  0  0  0  0  0
  140.4060  137.5480  152.3750 O   0  0  0  0  0  0  0  0  0  0  0  0
  139.2660  138.1600  152.9620 C   0  0  0  0  0  1  0  0  0  0  0  0
  147.5950  142.2670  152.9990 C   0  0  0  0  0  2  0  0  0  0  0  0
  147.2950  141.2970  154.1310 C   0  0  0  0  0  2  0  0  0  0  0  0
  148.4220  140.2850  154.3510 C   0  0  0  0  0  2  0  0  0  0  0  0
  147.8470  138.9720  154.8480 C   0  0  0  0  0  0  0  0  0  0  0  0
  147.9860  138.5920  156.0090 O   0  0  0  0  0  0  0  0  0  0  0  0
  147.1080  138.1050  153.8970 C   0  0  0  0  0  0  0  0  0  0  0  0
  146.0960  137.2360  154.3040 C   0  0  0  0  0  3  0  0  0  0  0  0
  145.4170  136.4720  153.3560 C   0  0  0  0  0  3  0  0  0  0  0  0
  145.7480  136.5750  152.0000 C   0  0  0  0  0  3  0  0  0  0  0  0
  146.7630  137.4370  151.5940 C   0  0  0  0  0  3  0  0  0  0  0  0
  147.4430  138.2010  152.5370 C   0  0  0  0  0  3  0  0  0  0  0  0
  1  4  1  0  0  0  0
  2  1  1  0  0  0  0
  2 18  1  0  0  0  0
  3  2  2  0  0  0  0
  5  8  1  0  0  0  0
  5  1  1  0  0  0  0
  6 13  1  0  0  0  0
  7  6  1  0  0  0  0
  8  7  2  0  0  0  0
  9 10  2  0  0  0  0
  9  8  1  0  0  0  0
 10 11  1  0  0  0  0
 11 16  1  0  0  0  0
 11  6  2  0  0  0  0
 13 12  1  0  0  0  0
 14 10  1  0  0  0  0
 15 14  1  0  0  0  0
 16 17  1  0  0  0  0
 18 19  1  0  0  0  0
 19 20  1  0  0  0  0
 20 21  1  0  0  0  0
 21 22  2  0  0  0  0
 23 24  1  0  0  0  0
 23 21  1  0  0  0  0
 25 24  2  0  0  0  0
 26 25  1  0  0  0  0
 27 26  2  0  0  0  0
 27 28  1  0  0  0  0
 28 23  2  0  0  0  0
M  END
>  <MODEL>
6

>  <REMARK>
 VINA RESULT:    -6.854      2.265      4.374
 INTER + INTRA:         -12.020
 INTER:                  -9.722
 INTRA:                  -2.299
 UNBOUND:                -1.160
  Name = CHEMBL1906696
  13 active torsions:
  status: ('A' for Active; 'I' for Inactive)
    1  A    between atoms: C_1  and  O_2
    2  A    between atoms: O_2  and  C_3
    3  A    between atoms: C_5  and  C_6
    4  A    between atoms: C_6  and  N_7
    5  A    between atoms: C_8  and  C_10
    6  A    between atoms: C_10  and  C_11
    7  A    between atoms: C_11  and  C_12
    8  A    between atoms: C_12  and  C_13
    9  A    between atoms: C_13  and  C_15
   10  A    between atoms: C_22  and  O_23
   11  A    between atoms: O_23  and  C_24
   12  A    between atoms: C_25  and  O_26
   13  A    between atoms: O_26  and  C_27
                            x       y       z     vdW  Elec       q    Type
                         _______ _______ _______ _____ _____    ______ ____

>  <TORSDO>
F 10

>  <SCORE>
-6.854

>  <RMSD_LB>
2.265

>  <RMSD_UB>
4.374

$$$$
CHEMBL1906696
 OpenBabel10172500133D

 28 29  0  0  0  0  0  0  0  0999 V2000
  146.7830  137.8030  152.2600 N   0  0  0  0  0  0  0  0  0  0  0  0
  147.5400  137.6200  153.3820 C   0  0  0  0  0  0  0  0  0  0  0  0
  148.7560  137.3920  153.3520 O   0  0  0  0  0  0  0  0  0  0  0  0
  145.8210  137.9960  152.3530 H   0  0  0  0  0  0  0  0  0  0  0  0
  147.3620  137.7210  150.9430 C   0  0  0  0  0  2  0  0  0  0  0  0
  144.4710  139.4550  149.0880 C   0  0  0  0  0  0  0  0  0  0  0  0
  145.2120  138.7650  150.0690 C   0  0  0  0  0  3  0  0  0  0  0  0
  146.5630  138.4550  149.8870 C   0  0  0  0  0  0  0  0  0  0  0  0
  147.1650  138.8050  148.6760 C   0  0  0  0  0  3  0  0  0  0  0  0
  146.4400  139.4560  147.6670 C   0  0  0  0  0  0  0  0  0  0  0  0
  145.0970  139.8340  147.8860 C   0  0  0  0  0  0  0  0  0  0  0  0
  142.3050  138.5190  148.9810 C   0  0  0  0  0  1  0  0  0  0  0  0
  143.1230  139.6540  149.2610 O   0  0  0  0  0  0  0  0  0  0  0  0
  146.9890  139.7820  146.4480 O   0  0  0  0  0  0  0  0  0  0  0  0
  147.8300  138.8040  145.8440 C   0  0  0  0  0  1  0  0  0  0  0  0
  144.4970  140.4990  146.8400 O   0  0  0  0  0  0  0  0  0  0  0  0
  143.8660  139.7130  145.8380 C   0  0  0  0  0  1  0  0  0  0  0  0
  146.7440  137.7280  154.6610 C   0  0  0  0  0  2  0  0  0  0  0  0
  146.9220  139.0890  155.3150 C   0  0  0  0  0  2  0  0  0  0  0  0
  146.1940  140.2030  154.5600 C   0  0  0  0  0  2  0  0  0  0  0  0
  147.2040  141.1550  153.9460 C   0  0  0  0  0  0  0  0  0  0  0  0
  148.2100  141.5220  154.5490 O   0  0  0  0  0  0  0  0  0  0  0  0
  146.9590  141.6780  152.5800 C   0  0  0  0  0  0  0  0  0  0  0  0
  145.6880  142.0270  152.1250 C   0  0  0  0  0  3  0  0  0  0  0  0
  145.5290  142.5450  150.8400 C   0  0  0  0  0  3  0  0  0  0  0  0
  146.6410  142.7140  150.0080 C   0  0  0  0  0  3  0  0  0  0  0  0
  147.9090  142.3590  150.4570 C   0  0  0  0  0  3  0  0  0  0  0  0
  148.0720  141.8430  151.7380 C   0  0  0  0  0  3  0  0  0  0  0  0
  1  4  1  0  0  0  0
  1  2  1  0  0  0  0
  2 18  1  0  0  0  0
  3  2  2  0  0  0  0
  5  1  1  0  0  0  0
  6 13  1  0  0  0  0
  6  7  1  0  0  0  0
  8  7  2  0  0  0  0
  8  5  1  0  0  0  0
  9  8  1  0  0  0  0
 10 11  1  0  0  0  0
 10  9  2  0  0  0  0
 11  6  2  0  0  0  0
 12 13  1  0  0  0  0
 14 10  1  0  0  0  0
 15 14  1  0  0  0  0
 16 11  1  0  0  0  0
 17 16  1  0  0  0  0
 18 19  1  0  0  0  0
 20 19  1  0  0  0  0
 21 22  2  0  0  0  0
 21 20  1  0  0  0  0
 23 21  1  0  0  0  0
 24 23  1  0  0  0  0
 25 24  2  0  0  0  0
 26 27  2  0  0  0  0
 26 25  1  0  0  0  0
 27 28  1  0  0  0  0
 28 23  2  0  0  0  0
M  END
>  <MODEL>
7

>  <REMARK>
 VINA RESULT:    -6.799      2.518      4.380
 INTER + INTRA:         -11.934
 INTER:                  -9.784
 INTRA:                  -2.150
 UNBOUND:                -1.160
  Name = CHEMBL1906696
  13 active torsions:
  status: ('A' for Active; 'I' for Inactive)
    1  A    between atoms: C_1  and  O_2
    2  A    between atoms: O_2  and  C_3
    3  A    between atoms: C_5  and  C_6
    4  A    between atoms: C_6  and  N_7
    5  A    between atoms: C_8  and  C_10
    6  A    between atoms: C_10  and  C_11
    7  A    between atoms: C_11  and  C_12
    8  A    between atoms: C_12  and  C_13
    9  A    between atoms: C_13  and  C_15
   10  A    between atoms: C_22  and  O_23
   11  A    between atoms: O_23  and  C_24
   12  A    between atoms: C_25  and  O_26
   13  A    between atoms: O_26  and  C_27
                            x       y       z     vdW  Elec       q    Type
                         _______ _______ _______ _____ _____    ______ ____

>  <TORSDO>
F 10

>  <SCORE>
-6.799

>  <RMSD_LB>
2.518

>  <RMSD_UB>
4.380

$$$$
CHEMBL1906696
 OpenBabel10172500133D

 28 29  0  0  0  0  0  0  0  0999 V2000
  138.6210  137.0670  149.7310 N   0  0  0  0  0  0  0  0  0  0  0  0
  138.9180  136.2640  148.6670 C   0  0  0  0  0  0  0  0  0  0  0  0
  140.0740  135.9560  148.3480 O   0  0  0  0  0  0  0  0  0  0  0  0
  137.6790  137.2630  149.9410 H   0  0  0  0  0  0  0  0  0  0  0  0
  139.6600  137.6330  150.5550 C   0  0  0  0  0  2  0  0  0  0  0  0
  139.6450  138.7700  154.2310 C   0  0  0  0  0  0  0  0  0  0  0  0
  140.0470  138.5460  152.8990 C   0  0  0  0  0  3  0  0  0  0  0  0
  139.2320  137.8670  151.9880 C   0  0  0  0  0  0  0  0  0  0  0  0
  138.0090  137.3660  152.4410 C   0  0  0  0  0  3  0  0  0  0  0  0
  137.6020  137.5390  153.7720 C   0  0  0  0  0  0  0  0  0  0  0  0
  138.3950  138.2910  154.6670 C   0  0  0  0  0  0  0  0  0  0  0  0
  141.6920  138.5970  155.3960 C   0  0  0  0  0  1  0  0  0  0  0  0
  140.5130  139.3530  155.1200 O   0  0  0  0  0  0  0  0  0  0  0  0
  136.4220  137.0270  154.2630 O   0  0  0  0  0  0  0  0  0  0  0  0
  136.2330  135.6230  154.1300 C   0  0  0  0  0  1  0  0  0  0  0  0
  137.8790  138.4260  155.9370 O   0  0  0  0  0  0  0  0  0  0  0  0
  138.3300  137.5150  156.9290 C   0  0  0  0  0  1  0  0  0  0  0  0
  137.6930  135.7870  147.9220 C   0  0  0  0  0  2  0  0  0  0  0  0
  137.4830  134.2910  148.0930 C   0  0  0  0  0  2  0  0  0  0  0  0
  136.7020  133.6720  146.9320 C   0  0  0  0  0  2  0  0  0  0  0  0
  135.5440  132.8530  147.4680 C   0  0  0  0  0  0  0  0  0  0  0  0
  135.3570  131.6840  147.1340 O   0  0  0  0  0  0  0  0  0  0  0  0
  134.5900  133.4880  148.4110 C   0  0  0  0  0  0  0  0  0  0  0  0
  134.3050  132.9510  149.6660 C   0  0  0  0  0  3  0  0  0  0  0  0
  133.4240  133.6150  150.5190 C   0  0  0  0  0  3  0  0  0  0  0  0
  132.8260  134.8140  150.1190 C   0  0  0  0  0  3  0  0  0  0  0  0
  133.1040  135.3470  148.8630 C   0  0  0  0  0  3  0  0  0  0  0  0
  133.9820  134.6890  148.0100 C   0  0  0  0  0  3  0  0  0  0  0  0
  1  4  1  0  0  0  0
  1  5  1  0  0  0  0
  2  1  1  0  0  0  0
  3  2  2  0  0  0  0
  5  8  1  0  0  0  0
  6 11  1  0  0  0  0
  6 13  1  0  0  0  0
  7  6  2  0  0  0  0
  8  9  2  0  0  0  0
  8  7  1  0  0  0  0
  9 10  1  0  0  0  0
 10 14  1  0  0  0  0
 10 11  2  0  0  0  0
 11 16  1  0  0  0  0
 13 12  1  0  0  0  0
 15 14  1  0  0  0  0
 16 17  1  0  0  0  0
 18 19  1  0  0  0  0
 18  2  1  0  0  0  0
 20 21  1  0  0  0  0
 20 19  1  0  0  0  0
 21 23  1  0  0  0  0
 22 21  2  0  0  0  0
 23 24  1  0  0  0  0
 24 25  2  0  0  0  0
 26 25  1  0  0  0  0
 27 26  2  0  0  0  0
 28 23  2  0  0  0  0
 28 27  1  0  0  0  0
M  END
>  <MODEL>
8

>  <REMARK>
 VINA RESULT:    -6.413      5.486     11.103
 INTER + INTRA:         -11.322
 INTER:                 -10.163
 INTRA:                  -1.160
 UNBOUND:                -1.160
  Name = CHEMBL1906696
  13 active torsions:
  status: ('A' for Active; 'I' for Inactive)
    1  A    between atoms: C_1  and  O_2
    2  A    between atoms: O_2  and  C_3
    3  A    between atoms: C_5  and  C_6
    4  A    between atoms: C_6  and  N_7
    5  A    between atoms: C_8  and  C_10
    6  A    between atoms: C_10  and  C_11
    7  A    between atoms: C_11  and  C_12
    8  A    between atoms: C_12  and  C_13
    9  A    between atoms: C_13  and  C_15
   10  A    between atoms: C_22  and  O_23
   11  A    between atoms: O_23  and  C_24
   12  A    between atoms: C_25  and  O_26
   13  A    between atoms: O_26  and  C_27
                            x       y       z     vdW  Elec       q    Type
                         _______ _______ _______ _____ _____    ______ ____

>  <TORSDO>
F 10

>  <SCORE>
-6.413

>  <RMSD_LB>
5.486

>  <RMSD_UB>
11.103

$$$$
CHEMBL1906696
 OpenBabel10172500133D

 28 29  0  0  0  0  0  0  0  0999 V2000
  139.7450  137.5030  150.9350 N   0  0  0  0  0  0  0  0  0  0  0  0
  141.0480  137.8940  150.8160 C   0  0  0  0  0  0  0  0  0  0  0  0
  141.4710  138.5740  149.8720 O   0  0  0  0  0  0  0  0  0  0  0  0
  139.4690  136.9740  151.7180 H   0  0  0  0  0  0  0  0  0  0  0  0
  138.7640  137.8500  149.9370 C   0  0  0  0  0  2  0  0  0  0  0  0
  135.4770  136.0050  149.1670 C   0  0  0  0  0  0  0  0  0  0  0  0
  136.6980  136.6900  149.0080 C   0  0  0  0  0  3  0  0  0  0  0  0
  137.4480  137.1210  150.1070 C   0  0  0  0  0  0  0  0  0  0  0  0
  136.9350  136.8990  151.3870 C   0  0  0  0  0  3  0  0  0  0  0  0
  135.7020  136.2560  151.5730 C   0  0  0  0  0  0  0  0  0  0  0  0
  134.9860  135.7550  150.4630 C   0  0  0  0  0  0  0  0  0  0  0  0
  134.1180  136.7960  147.4050 C   0  0  0  0  0  1  0  0  0  0  0  0
  134.7220  135.6850  148.0660 O   0  0  0  0  0  0  0  0  0  0  0  0
  135.1470  136.0540  152.8160 O   0  0  0  0  0  0  0  0  0  0  0  0
  135.8140  135.1290  153.6680 C   0  0  0  0  0  1  0  0  0  0  0  0
  133.8080  135.1100  150.7670 O   0  0  0  0  0  0  0  0  0  0  0  0
  132.6060  135.8640  150.6810 C   0  0  0  0  0  1  0  0  0  0  0  0
  141.9190  137.4160  151.9530 C   0  0  0  0  0  2  0  0  0  0  0  0
  142.5380  138.5800  152.7100 C   0  0  0  0  0  2  0  0  0  0  0  0
  142.8160  138.2460  154.1770 C   0  0  0  0  0  2  0  0  0  0  0  0
  141.8520  139.0040  155.0700 C   0  0  0  0  0  0  0  0  0  0  0  0
  142.1760  140.0320  155.6610 O   0  0  0  0  0  0  0  0  0  0  0  0
  140.4780  138.4760  155.2550 C   0  0  0  0  0  0  0  0  0  0  0  0
  139.4180  138.8290  154.4200 C   0  0  0  0  0  3  0  0  0  0  0  0
  138.1570  138.2720  154.6280 C   0  0  0  0  0  3  0  0  0  0  0  0
  137.9530  137.3620  155.6700 C   0  0  0  0  0  3  0  0  0  0  0  0
  139.0080  137.0140  156.5090 C   0  0  0  0  0  3  0  0  0  0  0  0
  140.2670  137.5670  156.3060 C   0  0  0  0  0  3  0  0  0  0  0  0
  1  4  1  0  0  0  0
  2  1  1  0  0  0  0
  2 18  1  0  0  0  0
  3  2  2  0  0  0  0
  5  8  1  0  0  0  0
  5  1  1  0  0  0  0
  6 11  1  0  0  0  0
  7  6  2  0  0  0  0
  7  8  1  0  0  0  0
  8  9  2  0  0  0  0
  9 10  1  0  0  0  0
 10 14  1  0  0  0  0
 11 16  1  0  0  0  0
 11 10  2  0  0  0  0
 12 13  1  0  0  0  0
 13  6  1  0  0  0  0
 14 15  1  0  0  0  0
 17 16  1  0  0  0  0
 18 19  1  0  0  0  0
 19 20  1  0  0  0  0
 20 21  1  0  0  0  0
 21 23  1  0  0  0  0
 21 22  2  0  0  0  0
 23 28  1  0  0  0  0
 24 25  1  0  0  0  0
 24 23  2  0  0  0  0
 25 26  2  0  0  0  0
 26 27  1  0  0  0  0
 28 27  2  0  0  0  0
M  END
>  <MODEL>
9

>  <REMARK>
 VINA RESULT:    -6.408      4.352      7.597
 INTER + INTRA:         -11.314
 INTER:                  -9.896
 INTRA:                  -1.418
 UNBOUND:                -1.160
  Name = CHEMBL1906696
  13 active torsions:
  status: ('A' for Active; 'I' for Inactive)
    1  A    between atoms: C_1  and  O_2
    2  A    between atoms: O_2  and  C_3
    3  A    between atoms: C_5  and  C_6
    4  A    between atoms: C_6  and  N_7
    5  A    between atoms: C_8  and  C_10
    6  A    between atoms: C_10  and  C_11
    7  A    between atoms: C_11  and  C_12
    8  A    between atoms: C_12  and  C_13
    9  A    between atoms: C_13  and  C_15
   10  A    between atoms: C_22  and  O_23
   11  A    between atoms: O_23  and  C_24
   12  A    between atoms: C_25  and  O_26
   13  A    between atoms: O_26  and  C_27
                            x       y       z     vdW  Elec       q    Type
                         _______ _______ _______ _____ _____    ______ ____

>  <TORSDO>
F 10

>  <SCORE>
-6.408

>  <RMSD_LB>
4.352

>  <RMSD_UB>
7.597

$$$$
