CHEMBL172590
 OpenBabel10162523443D

 35 35  0  0  1  0  0  0  0  0999 V2000
  136.5350  136.5590  155.1510 C   0  0  0  0  0  0  0  0  0  0  0  0
  137.1580  136.9580  153.9650 C   0  0  0  0  0  3  0  0  0  0  0  0
  138.2880  137.7780  153.9950 C   0  0  0  0  0  3  0  0  0  0  0  0
  138.8170  138.2300  155.2090 C   0  0  0  0  0  0  0  0  0  0  0  0
  138.1910  137.8500  156.4110 C   0  0  0  0  0  0  0  0  0  0  0  0
  137.0820  136.9900  156.3710 C   0  0  0  0  0  3  0  0  0  0  0  0
  138.5640  138.2100  157.6830 O   0  0  0  0  0  0  0  0  0  0  0  0
  137.6620  137.8640  158.7310 C   0  0  0  0  0  1  0  0  0  0  0  0
  139.9280  139.0200  155.3030 O   0  0  0  0  0  0  0  0  0  0  0  0
  141.2060  138.3880  155.4040 C   0  0  0  0  0  2  0  0  0  0  0  0
  142.2760  139.4740  155.2210 C   0  0  1  0  0  3  0  0  0  0  0  0
  143.1890  139.4490  156.3250 O   0  0  0  0  0  0  0  0  0  0  0  0
  142.7630  139.8360  157.1060 H   0  0  0  0  0  0  0  0  0  0  0  0
  143.0650  139.2900  153.9150 C   0  0  0  0  0  2  0  0  0  0  0  0
  142.1660  139.2550  152.7600 N   0  0  0  0  0  4  0  0  0  0  0  0
  141.8860  140.2070  152.5270 H   0  0  0  0  0  0  0  0  0  0  0  0
  141.3500  138.6920  152.9980 H   0  0  0  0  0  0  0  0  0  0  0  0
  142.8280  138.6560  151.6100 C   0  0  0  0  0  2  0  0  0  0  0  0
  142.2820  137.2470  151.3970 C   0  0  0  0  0  2  0  0  0  0  0  0
  140.7600  137.2540  151.5160 C   0  0  0  0  0  2  0  0  0  0  0  0
  140.1020  137.6750  150.2090 C   0  0  0  0  0  2  0  0  0  0  0  0
  139.0180  138.7080  150.4610 C   0  0  0  0  0  1  0  0  0  0  0  0
  135.2940  135.7130  155.1100 C   0  0  0  0  0  2  0  0  0  0  0  0
  134.3780  134.1600  153.4600 C   0  0  0  0  0  0  0  0  0  0  0  0
  134.2280  133.2770  154.2990 O   0  0  0  0  0  0  0  0  0  0  0  0
  134.8700  135.4110  153.7660 N   0  0  0  0  0  0  0  0  0  0  0  0
  134.9330  136.1000  153.0660 H   0  0  0  0  0  0  0  0  0  0  0  0
  134.0110  133.9580  152.0070 C   0  0  0  0  0  2  0  0  0  0  0  0
  135.2290  134.0550  151.0960 C   0  0  0  0  0  2  0  0  0  0  0  0
  134.8650  133.8580  149.6250 C   0  0  0  0  0  2  0  0  0  0  0  0
  133.4440  133.3050  149.5060 C   0  0  0  0  0  2  0  0  0  0  0  0
  132.6950  133.9350  148.3370 C   0  0  0  0  0  2  0  0  0  0  0  0
  133.5070  135.0730  147.7210 C   0  0  0  0  0  2  0  0  0  0  0  0
  132.7370  136.9630  149.1900 C   0  0  0  0  0  1  0  0  0  0  0  0
  132.7420  136.3930  147.7810 C   0  0  0  0  0  2  0  0  0  0  0  0
  1  6  1  0  0  0  0
  2  3  1  0  0  0  0
  2  1  2  0  0  0  0
  3  4  2  0  0  0  0
  4  9  1  0  0  0  0
  4  5  1  0  0  0  0
  5  7  1  0  0  0  0
  6  5  2  0  0  0  0
  7  8  1  0  0  0  0
  9 10  1  0  0  0  0
 11 14  1  6  0  0  0
 11 10  1  0  0  0  0
 11 12  1  0  0  0  0
 12 13  1  0  0  0  0
 15 17  1  0  0  0  0
 15 14  1  0  0  0  0
 16 15  1  0  0  0  0
 18 15  1  0  0  0  0
 19 20  1  0  0  0  0
 19 18  1  0  0  0  0
 21 22  1  0  0  0  0
 21 20  1  0  0  0  0
 23  1  1  0  0  0  0
 24 26  1  0  0  0  0
 24 25  2  0  0  0  0
 26 23  1  0  0  0  0
 27 26  1  0  0  0  0
 28 24  1  0  0  0  0
 29 28  1  0  0  0  0
 30 29  1  0  0  0  0
 31 30  1  0  0  0  0
 32 31  1  0  0  0  0
 33 35  1  0  0  0  0
 33 32  1  0  0  0  0
 35 34  1  0  0  0  0
M  END
>  <MODEL>
1

>  <REMARK>
 VINA RESULT:    -6.377      0.000      0.000
 INTER + INTRA:         -16.372
 INTER:                 -14.251
 INTRA:                  -2.121
 UNBOUND:                -2.725
  Name = CHEMBL172590
  23 active torsions:
  status: ('A' for Active; 'I' for Inactive)
    1  A    between atoms: C_1  and  C_2
    2  A    between atoms: C_2  and  C_3
    3  A    between atoms: C_3  and  C_4
    4  A    between atoms: C_4  and  C_5
    5  A    between atoms: C_5  and  C_6
    6  A    between atoms: C_6  and  C_7
    7  A    between atoms: C_7  and  C_8
    8  A    between atoms: C_8  and  C_9
    9  A    between atoms: N_11  and  C_12
   10  A    between atoms: C_12  and  C_13
   11  A    between atoms: C_16  and  O_17
   12  A    between atoms: O_17  and  C_18
   13  A    between atoms: C_18  and  C_19
   14  A    between atoms: C_19  and  O_20
   15  A    between atoms: C_19  and  C_21
   16  A    between atoms: C_21  and  N_22
   17  A    between atoms: N_22  and  C_23
   18  A    between atoms: C_23  and  C_24
   19  A    between atoms: C_24  and  C_25
   20  A    between atoms: C_25  and  C_26
   21  A    between atoms: C_26  and  C_27
   22  A    between atoms: C_28  and  O_29
   23  A    between atoms: O_29  and  C_30
                            x       y       z     vdW  Elec       q    Type
                         _______ _______ _______ _____ _____    ______ ____

>  <TORSDO>
F 20

>  <SCORE>
-6.377

>  <RMSD_LB>
0.000

>  <RMSD_UB>
0.000

$$$$
CHEMBL172590
 OpenBabel10162523443D

 35 35  0  0  1  0  0  0  0  0999 V2000
  138.4200  137.7100  151.0770 C   0  0  0  0  0  0  0  0  0  0  0  0
  137.2380  136.9660  151.1120 C   0  0  0  0  0  3  0  0  0  0  0  0
  136.5720  136.6300  149.9320 C   0  0  0  0  0  3  0  0  0  0  0  0
  137.0640  137.0380  148.6870 C   0  0  0  0  0  0  0  0  0  0  0  0
  138.2460  137.8010  148.6360 C   0  0  0  0  0  0  0  0  0  0  0  0
  138.9300  138.0960  149.8260 C   0  0  0  0  0  3  0  0  0  0  0  0
  138.8580  138.2950  147.5110 O   0  0  0  0  0  0  0  0  0  0  0  0
  140.2670  138.0990  147.4160 C   0  0  0  0  0  1  0  0  0  0  0  0
  136.4670  136.7270  147.4990 O   0  0  0  0  0  0  0  0  0  0  0  0
  135.4800  135.6920  147.4830 C   0  0  0  0  0  2  0  0  0  0  0  0
  134.4700  136.0320  146.3780 C   0  0  1  0  0  3  0  0  0  0  0  0
  133.8820  134.8290  145.8690 O   0  0  0  0  0  0  0  0  0  0  0  0
  133.8050  134.1790  146.5850 H   0  0  0  0  0  0  0  0  0  0  0  0
  133.3530  136.9590  146.8850 C   0  0  0  0  0  2  0  0  0  0  0  0
  133.5650  137.3160  148.2880 N   0  0  0  0  0  4  0  0  0  0  0  0
  133.6420  138.3310  148.3660 H   0  0  0  0  0  0  0  0  0  0  0  0
  134.4210  136.8690  148.6140 H   0  0  0  0  0  0  0  0  0  0  0  0
  132.4550  136.8570  149.1110 C   0  0  0  0  0  2  0  0  0  0  0  0
  132.9870  136.4360  150.4770 C   0  0  0  0  0  2  0  0  0  0  0  0
  132.6340  134.9750  150.7460 C   0  0  0  0  0  2  0  0  0  0  0  0
  133.0450  134.0800  149.5850 C   0  0  0  0  0  2  0  0  0  0  0  0
  133.9440  132.9550  150.0670 C   0  0  0  0  0  1  0  0  0  0  0  0
  139.1080  138.1060  152.3540 C   0  0  0  0  0  2  0  0  0  0  0  0
  138.5820  138.5930  154.6900 C   0  0  0  0  0  0  0  0  0  0  0  0
  139.5410  139.3500  154.8000 O   0  0  0  0  0  0  0  0  0  0  0  0
  138.2650  137.9510  153.5110 N   0  0  0  0  0  0  0  0  0  0  0  0
  137.4600  137.3860  153.4600 H   0  0  0  0  0  0  0  0  0  0  0  0
  137.6410  138.3130  155.8410 C   0  0  0  0  0  2  0  0  0  0  0  0
  138.1890  137.2370  156.7710 C   0  0  0  0  0  2  0  0  0  0  0  0
  137.6630  135.8470  156.4160 C   0  0  0  0  0  2  0  0  0  0  0  0
  136.1930  135.7240  156.8180 C   0  0  0  0  0  2  0  0  0  0  0  0
  135.3550  135.1180  155.6970 C   0  0  0  0  0  2  0  0  0  0  0  0
  135.9330  135.4800  154.3300 C   0  0  0  0  0  2  0  0  0  0  0  0
  134.3780  133.5840  153.7740 C   0  0  0  0  0  1  0  0  0  0  0  0
  135.4940  134.4800  153.2630 C   0  0  0  0  0  2  0  0  0  0  0  0
  1  2  1  0  0  0  0
  1 23  1  0  0  0  0
  3  2  2  0  0  0  0
  4  3  1  0  0  0  0
  5  4  2  0  0  0  0
  5  6  1  0  0  0  0
  6  1  2  0  0  0  0
  7  5  1  0  0  0  0
  8  7  1  0  0  0  0
  9  4  1  0  0  0  0
 10  9  1  0  0  0  0
 11 14  1  1  0  0  0
 11 10  1  0  0  0  0
 12 11  1  0  0  0  0
 12 13  1  0  0  0  0
 14 15  1  0  0  0  0
 15 16  1  0  0  0  0
 15 17  1  0  0  0  0
 15 18  1  0  0  0  0
 18 19  1  0  0  0  0
 19 20  1  0  0  0  0
 21 22  1  0  0  0  0
 21 20  1  0  0  0  0
 23 26  1  0  0  0  0
 24 25  2  0  0  0  0
 24 28  1  0  0  0  0
 26 24  1  0  0  0  0
 27 26  1  0  0  0  0
 28 29  1  0  0  0  0
 30 29  1  0  0  0  0
 30 31  1  0  0  0  0
 32 31  1  0  0  0  0
 33 32  1  0  0  0  0
 35 34  1  0  0  0  0
 35 33  1  0  0  0  0
M  END
>  <MODEL>
2

>  <REMARK>
 VINA RESULT:    -6.189      3.236      8.425
 INTER + INTRA:         -15.970
 INTER:                 -13.097
 INTRA:                  -2.873
 UNBOUND:                -2.725
  Name = CHEMBL172590
  23 active torsions:
  status: ('A' for Active; 'I' for Inactive)
    1  A    between atoms: C_1  and  C_2
    2  A    between atoms: C_2  and  C_3
    3  A    between atoms: C_3  and  C_4
    4  A    between atoms: C_4  and  C_5
    5  A    between atoms: C_5  and  C_6
    6  A    between atoms: C_6  and  C_7
    7  A    between atoms: C_7  and  C_8
    8  A    between atoms: C_8  and  C_9
    9  A    between atoms: N_11  and  C_12
   10  A    between atoms: C_12  and  C_13
   11  A    between atoms: C_16  and  O_17
   12  A    between atoms: O_17  and  C_18
   13  A    between atoms: C_18  and  C_19
   14  A    between atoms: C_19  and  O_20
   15  A    between atoms: C_19  and  C_21
   16  A    between atoms: C_21  and  N_22
   17  A    between atoms: N_22  and  C_23
   18  A    between atoms: C_23  and  C_24
   19  A    between atoms: C_24  and  C_25
   20  A    between atoms: C_25  and  C_26
   21  A    between atoms: C_26  and  C_27
   22  A    between atoms: C_28  and  O_29
   23  A    between atoms: O_29  and  C_30
                            x       y       z     vdW  Elec       q    Type
                         _______ _______ _______ _____ _____    ______ ____

>  <TORSDO>
F 20

>  <SCORE>
-6.189

>  <RMSD_LB>
3.236

>  <RMSD_UB>
8.425

$$$$
CHEMBL172590
 OpenBabel10162523443D

 35 35  0  0  1  0  0  0  0  0999 V2000
  142.1270  137.5670  152.3550 C   0  0  0  0  0  0  0  0  0  0  0  0
  142.6060  137.9550  153.6090 C   0  0  0  0  0  3  0  0  0  0  0  0
  141.7310  138.4130  154.5970 C   0  0  0  0  0  3  0  0  0  0  0  0
  140.3560  138.5050  154.3520 C   0  0  0  0  0  0  0  0  0  0  0  0
  139.8600  138.1320  153.0890 C   0  0  0  0  0  0  0  0  0  0  0  0
  140.7440  137.6330  152.1190 C   0  0  0  0  0  3  0  0  0  0  0  0
  138.5510  138.1720  152.6750 O   0  0  0  0  0  0  0  0  0  0  0  0
  138.2460  137.4780  151.4680 C   0  0  0  0  0  1  0  0  0  0  0  0
  139.4500  138.9290  155.2820 O   0  0  0  0  0  0  0  0  0  0  0  0
  138.8840  137.9630  156.1720 C   0  0  0  0  0  2  0  0  0  0  0  0
  137.3650  138.1850  156.1900 C   0  0  1  0  0  3  0  0  0  0  0  0
  136.9940  139.1010  155.1530 O   0  0  0  0  0  0  0  0  0  0  0  0
  137.7720  139.6100  154.8780 H   0  0  0  0  0  0  0  0  0  0  0  0
  136.5900  136.8710  155.9970 C   0  0  0  0  0  2  0  0  0  0  0  0
  136.8190  136.3180  154.6620 N   0  0  0  0  0  4  0  0  0  0  0  0
  137.7300  135.8590  154.6430 H   0  0  0  0  0  0  0  0  0  0  0  0
  136.7910  137.0780  153.9830 H   0  0  0  0  0  0  0  0  0  0  0  0
  135.7880  135.3480  154.3210 C   0  0  0  0  0  2  0  0  0  0  0  0
  135.4180  135.5090  152.8500 C   0  0  0  0  0  2  0  0  0  0  0  0
  135.9200  134.3090  152.0510 C   0  0  0  0  0  2  0  0  0  0  0  0
  134.9170  133.8920  150.9850 C   0  0  0  0  0  2  0  0  0  0  0  0
  134.0990  135.0850  150.5200 C   0  0  0  0  0  1  0  0  0  0  0  0
  143.0790  137.1170  151.2830 C   0  0  0  0  0  2  0  0  0  0  0  0
  145.4290  136.4900  151.0430 C   0  0  0  0  0  0  0  0  0  0  0  0
  145.1860  135.7440  150.1000 O   0  0  0  0  0  0  0  0  0  0  0  0
  144.4590  137.2380  151.6780 N   0  0  0  0  0  0  0  0  0  0  0  0
  144.7100  137.8540  152.4040 H   0  0  0  0  0  0  0  0  0  0  0  0
  146.8300  136.6760  151.5820 C   0  0  0  0  0  2  0  0  0  0  0  0
  147.0050  138.0350  152.2500 C   0  0  0  0  0  2  0  0  0  0  0  0
  147.1980  137.9140  153.7600 C   0  0  0  0  0  2  0  0  0  0  0  0
  146.9440  139.2640  154.4320 C   0  0  0  0  0  2  0  0  0  0  0  0
  145.9310  140.0950  153.6520 C   0  0  0  0  0  2  0  0  0  0  0  0
  146.1990  141.5880  153.8310 C   0  0  0  0  0  2  0  0  0  0  0  0
  147.6060  141.9700  151.7830 C   0  0  0  0  0  1  0  0  0  0  0  0
  146.2980  142.2970  152.4830 C   0  0  0  0  0  2  0  0  0  0  0  0
  1  2  1  0  0  0  0
  2  3  2  0  0  0  0
  4  3  1  0  0  0  0
  4  9  1  0  0  0  0
  5  4  2  0  0  0  0
  6  1  2  0  0  0  0
  6  5  1  0  0  0  0
  7  5  1  0  0  0  0
  8  7  1  0  0  0  0
  9 10  1  0  0  0  0
 10 11  1  0  0  0  0
 11 14  1  6  0  0  0
 12 11  1  0  0  0  0
 13 12  1  0  0  0  0
 15 14  1  0  0  0  0
 16 15  1  0  0  0  0
 17 15  1  0  0  0  0
 18 15  1  0  0  0  0
 19 18  1  0  0  0  0
 20 19  1  0  0  0  0
 21 20  1  0  0  0  0
 22 21  1  0  0  0  0
 23 26  1  0  0  0  0
 23  1  1  0  0  0  0
 24 28  1  0  0  0  0
 24 26  1  0  0  0  0
 25 24  2  0  0  0  0
 26 27  1  0  0  0  0
 28 29  1  0  0  0  0
 29 30  1  0  0  0  0
 30 31  1  0  0  0  0
 32 33  1  0  0  0  0
 32 31  1  0  0  0  0
 34 35  1  0  0  0  0
 35 33  1  0  0  0  0
M  END
>  <MODEL>
3

>  <REMARK>
 VINA RESULT:    -6.187      2.982      9.493
 INTER + INTRA:         -15.965
 INTER:                 -13.634
 INTRA:                  -2.331
 UNBOUND:                -2.725
  Name = CHEMBL172590
  23 active torsions:
  status: ('A' for Active; 'I' for Inactive)
    1  A    between atoms: C_1  and  C_2
    2  A    between atoms: C_2  and  C_3
    3  A    between atoms: C_3  and  C_4
    4  A    between atoms: C_4  and  C_5
    5  A    between atoms: C_5  and  C_6
    6  A    between atoms: C_6  and  C_7
    7  A    between atoms: C_7  and  C_8
    8  A    between atoms: C_8  and  C_9
    9  A    between atoms: N_11  and  C_12
   10  A    between atoms: C_12  and  C_13
   11  A    between atoms: C_16  and  O_17
   12  A    between atoms: O_17  and  C_18
   13  A    between atoms: C_18  and  C_19
   14  A    between atoms: C_19  and  O_20
   15  A    between atoms: C_19  and  C_21
   16  A    between atoms: C_21  and  N_22
   17  A    between atoms: N_22  and  C_23
   18  A    between atoms: C_23  and  C_24
   19  A    between atoms: C_24  and  C_25
   20  A    between atoms: C_25  and  C_26
   21  A    between atoms: C_26  and  C_27
   22  A    between atoms: C_28  and  O_29
   23  A    between atoms: O_29  and  C_30
                            x       y       z     vdW  Elec       q    Type
                         _______ _______ _______ _____ _____    ______ ____

>  <TORSDO>
F 20

>  <SCORE>
-6.187

>  <RMSD_LB>
2.982

>  <RMSD_UB>
9.493

$$$$
CHEMBL172590
 OpenBabel10162523443D

 35 35  0  0  1  0  0  0  0  0999 V2000
  142.4010  137.6100  152.4400 C   0  0  0  0  0  0  0  0  0  0  0  0
  141.3600  137.3820  151.5360 C   0  0  0  0  0  3  0  0  0  0  0  0
  140.0360  137.6460  151.8930 C   0  0  0  0  0  3  0  0  0  0  0  0
  139.7170  138.1340  153.1660 C   0  0  0  0  0  0  0  0  0  0  0  0
  140.7540  138.3540  154.0930 C   0  0  0  0  0  0  0  0  0  0  0  0
  142.0850  138.1260  153.7080 C   0  0  0  0  0  3  0  0  0  0  0  0
  140.6220  138.8110  155.3810 O   0  0  0  0  0  0  0  0  0  0  0  0
  140.6930  137.8310  156.4130 C   0  0  0  0  0  1  0  0  0  0  0  0
  138.4450  138.4260  153.5670 O   0  0  0  0  0  0  0  0  0  0  0  0
  137.6030  137.3530  153.9960 C   0  0  0  0  0  2  0  0  0  0  0  0
  137.2890  137.5770  155.4820 C   0  0  1  0  0  3  0  0  0  0  0  0
  136.8920  138.9370  155.6970 O   0  0  0  0  0  0  0  0  0  0  0  0
  137.3550  139.5110  155.0670 H   0  0  0  0  0  0  0  0  0  0  0  0
  136.1710  136.6460  155.9800 C   0  0  0  0  0  2  0  0  0  0  0  0
  135.3140  136.2170  154.8740 N   0  0  0  0  0  4  0  0  0  0  0  0
  135.8780  136.1380  154.0270 H   0  0  0  0  0  0  0  0  0  0  0  0
  134.5750  136.9070  154.7460 H   0  0  0  0  0  0  0  0  0  0  0  0
  134.7040  134.9270  155.1650 C   0  0  0  0  0  2  0  0  0  0  0  0
  134.5180  134.1580  153.8600 C   0  0  0  0  0  2  0  0  0  0  0  0
  135.7130  134.3930  152.9410 C   0  0  0  0  0  2  0  0  0  0  0  0
  135.3660  134.0920  151.4890 C   0  0  0  0  0  2  0  0  0  0  0  0
  136.2820  134.8550  150.5480 C   0  0  0  0  0  1  0  0  0  0  0  0
  143.8190  137.2830  152.0640 C   0  0  0  0  0  2  0  0  0  0  0  0
  145.9470  136.8580  153.1880 C   0  0  0  0  0  0  0  0  0  0  0  0
  146.2970  136.0530  152.3310 O   0  0  0  0  0  0  0  0  0  0  0  0
  144.7510  137.5430  153.1310 N   0  0  0  0  0  0  0  0  0  0  0  0
  144.5340  138.2110  153.8210 H   0  0  0  0  0  0  0  0  0  0  0  0
  146.8160  137.1920  154.3810 C   0  0  0  0  0  2  0  0  0  0  0  0
  147.7680  138.3440  154.0850 C   0  0  0  0  0  2  0  0  0  0  0  0
  147.3010  139.6530  154.7200 C   0  0  0  0  0  2  0  0  0  0  0  0
  148.1460  140.8180  154.2020 C   0  0  0  0  0  2  0  0  0  0  0  0
  147.2760  141.9230  153.6140 C   0  0  0  0  0  2  0  0  0  0  0  0
  146.2870  141.3540  152.5980 C   0  0  0  0  0  2  0  0  0  0  0  0
  146.2160  142.6390  150.4380 C   0  0  0  0  0  1  0  0  0  0  0  0
  145.5960  142.4680  151.8150 C   0  0  0  0  0  2  0  0  0  0  0  0
  1  6  1  0  0  0  0
  2  3  1  0  0  0  0
  2  1  2  0  0  0  0
  3  4  2  0  0  0  0
  4  9  1  0  0  0  0
  4  5  1  0  0  0  0
  5  7  1  0  0  0  0
  6  5  2  0  0  0  0
  7  8  1  0  0  0  0
  9 10  1  0  0  0  0
 11 10  1  6  0  0  0
 11 12  1  0  0  0  0
 11 14  1  0  0  0  0
 13 12  1  0  0  0  0
 15 18  1  0  0  0  0
 15 14  1  0  0  0  0
 16 15  1  0  0  0  0
 17 15  1  0  0  0  0
 19 18  1  0  0  0  0
 20 19  1  0  0  0  0
 21 20  1  0  0  0  0
 22 21  1  0  0  0  0
 23  1  1  0  0  0  0
 23 26  1  0  0  0  0
 24 28  1  0  0  0  0
 25 24  2  0  0  0  0
 26 24  1  0  0  0  0
 26 27  1  0  0  0  0
 29 28  1  0  0  0  0
 29 30  1  0  0  0  0
 31 30  1  0  0  0  0
 32 31  1  0  0  0  0
 33 32  1  0  0  0  0
 34 35  1  0  0  0  0
 35 33  1  0  0  0  0
M  END
>  <MODEL>
4

>  <REMARK>
 VINA RESULT:    -6.186      2.996      9.748
 INTER + INTRA:         -15.963
 INTER:                 -14.493
 INTRA:                  -1.471
 UNBOUND:                -2.725
  Name = CHEMBL172590
  23 active torsions:
  status: ('A' for Active; 'I' for Inactive)
    1  A    between atoms: C_1  and  C_2
    2  A    between atoms: C_2  and  C_3
    3  A    between atoms: C_3  and  C_4
    4  A    between atoms: C_4  and  C_5
    5  A    between atoms: C_5  and  C_6
    6  A    between atoms: C_6  and  C_7
    7  A    between atoms: C_7  and  C_8
    8  A    between atoms: C_8  and  C_9
    9  A    between atoms: N_11  and  C_12
   10  A    between atoms: C_12  and  C_13
   11  A    between atoms: C_16  and  O_17
   12  A    between atoms: O_17  and  C_18
   13  A    between atoms: C_18  and  C_19
   14  A    between atoms: C_19  and  O_20
   15  A    between atoms: C_19  and  C_21
   16  A    between atoms: C_21  and  N_22
   17  A    between atoms: N_22  and  C_23
   18  A    between atoms: C_23  and  C_24
   19  A    between atoms: C_24  and  C_25
   20  A    between atoms: C_25  and  C_26
   21  A    between atoms: C_26  and  C_27
   22  A    between atoms: C_28  and  O_29
   23  A    between atoms: O_29  and  C_30
                            x       y       z     vdW  Elec       q    Type
                         _______ _______ _______ _____ _____    ______ ____

>  <TORSDO>
F 20

>  <SCORE>
-6.186

>  <RMSD_LB>
2.996

>  <RMSD_UB>
9.748

$$$$
CHEMBL172590
 OpenBabel10162523443D

 35 35  0  0  1  0  0  0  0  0999 V2000
  141.6480  137.7800  152.3480 C   0  0  0  0  0  0  0  0  0  0  0  0
  142.2190  138.2260  153.5430 C   0  0  0  0  0  3  0  0  0  0  0  0
  141.4150  138.5640  154.6340 C   0  0  0  0  0  3  0  0  0  0  0  0
  140.0200  138.4760  154.5550 C   0  0  0  0  0  0  0  0  0  0  0  0
  139.4300  138.0420  153.3530 C   0  0  0  0  0  0  0  0  0  0  0  0
  140.2500  137.6640  152.2770 C   0  0  0  0  0  3  0  0  0  0  0  0
  138.0870  137.9110  153.0960 O   0  0  0  0  0  0  0  0  0  0  0  0
  137.7340  137.3320  151.8420 C   0  0  0  0  0  1  0  0  0  0  0  0
  139.1840  138.7760  155.5920 O   0  0  0  0  0  0  0  0  0  0  0  0
  138.7820  137.7230  156.4710 C   0  0  0  0  0  2  0  0  0  0  0  0
  137.2540  137.7890  156.6060 C   0  0  1  0  0  3  0  0  0  0  0  0
  136.7170  138.6840  155.6240 O   0  0  0  0  0  0  0  0  0  0  0  0
  136.9060  139.5990  155.8830 H   0  0  0  0  0  0  0  0  0  0  0  0
  136.6010  136.4090  156.4350 C   0  0  0  0  0  2  0  0  0  0  0  0
  136.6650  135.9670  155.0410 N   0  0  0  0  0  4  0  0  0  0  0  0
  137.5290  135.4440  154.8970 H   0  0  0  0  0  0  0  0  0  0  0  0
  136.6420  136.7870  154.4370 H   0  0  0  0  0  0  0  0  0  0  0  0
  135.5300  135.1140  154.7170 C   0  0  0  0  0  2  0  0  0  0  0  0
  134.3920  135.9790  154.1850 C   0  0  0  0  0  2  0  0  0  0  0  0
  134.1960  135.7230  152.6930 C   0  0  0  0  0  2  0  0  0  0  0  0
  134.2900  134.2390  152.3670 C   0  0  0  0  0  2  0  0  0  0  0  0
  134.9880  134.0240  151.0350 C   0  0  0  0  0  1  0  0  0  0  0  0
  142.5160  137.4600  151.1640 C   0  0  0  0  0  2  0  0  0  0  0  0
  144.0330  139.2990  150.6300 C   0  0  0  0  0  0  0  0  0  0  0  0
  143.1510  139.9260  150.0520 O   0  0  0  0  0  0  0  0  0  0  0  0
  143.8130  138.0820  151.2400 N   0  0  0  0  0  0  0  0  0  0  0  0
  144.5430  137.6370  151.7280 H   0  0  0  0  0  0  0  0  0  0  0  0
  145.4480  139.8230  150.7460 C   0  0  0  0  0  2  0  0  0  0  0  0
  145.5680  141.2510  150.2280 C   0  0  0  0  0  2  0  0  0  0  0  0
  145.4710  142.2810  151.3510 C   0  0  0  0  0  2  0  0  0  0  0  0
  146.8170  142.4060  152.0670 C   0  0  0  0  0  2  0  0  0  0  0  0
  146.7050  142.0250  153.5390 C   0  0  0  0  0  2  0  0  0  0  0  0
  148.0770  141.6880  154.1190 C   0  0  0  0  0  2  0  0  0  0  0  0
  148.4810  139.3480  153.2910 C   0  0  0  0  0  1  0  0  0  0  0  0
  148.1680  140.2120  154.5010 C   0  0  0  0  0  2  0  0  0  0  0  0
  1  2  1  0  0  0  0
  2  3  2  0  0  0  0
  4  3  1  0  0  0  0
  4  9  1  0  0  0  0
  5  4  2  0  0  0  0
  6  1  2  0  0  0  0
  6  5  1  0  0  0  0
  7  5  1  0  0  0  0
  8  7  1  0  0  0  0
  9 10  1  0  0  0  0
 10 11  1  0  0  0  0
 11 14  1  6  0  0  0
 12 13  1  0  0  0  0
 12 11  1  0  0  0  0
 15 14  1  0  0  0  0
 16 15  1  0  0  0  0
 17 15  1  0  0  0  0
 18 15  1  0  0  0  0
 19 18  1  0  0  0  0
 20 19  1  0  0  0  0
 21 20  1  0  0  0  0
 22 21  1  0  0  0  0
 23 26  1  0  0  0  0
 23  1  1  0  0  0  0
 24 28  1  0  0  0  0
 24 26  1  0  0  0  0
 25 24  2  0  0  0  0
 26 27  1  0  0  0  0
 29 28  1  0  0  0  0
 29 30  1  0  0  0  0
 30 31  1  0  0  0  0
 31 32  1  0  0  0  0
 32 33  1  0  0  0  0
 33 35  1  0  0  0  0
 34 35  1  0  0  0  0
M  END
>  <MODEL>
5

>  <REMARK>
 VINA RESULT:    -6.161      2.973      9.867
 INTER + INTRA:         -15.909
 INTER:                 -13.722
 INTRA:                  -2.187
 UNBOUND:                -2.725
  Name = CHEMBL172590
  23 active torsions:
  status: ('A' for Active; 'I' for Inactive)
    1  A    between atoms: C_1  and  C_2
    2  A    between atoms: C_2  and  C_3
    3  A    between atoms: C_3  and  C_4
    4  A    between atoms: C_4  and  C_5
    5  A    between atoms: C_5  and  C_6
    6  A    between atoms: C_6  and  C_7
    7  A    between atoms: C_7  and  C_8
    8  A    between atoms: C_8  and  C_9
    9  A    between atoms: N_11  and  C_12
   10  A    between atoms: C_12  and  C_13
   11  A    between atoms: C_16  and  O_17
   12  A    between atoms: O_17  and  C_18
   13  A    between atoms: C_18  and  C_19
   14  A    between atoms: C_19  and  O_20
   15  A    between atoms: C_19  and  C_21
   16  A    between atoms: C_21  and  N_22
   17  A    between atoms: N_22  and  C_23
   18  A    between atoms: C_23  and  C_24
   19  A    between atoms: C_24  and  C_25
   20  A    between atoms: C_25  and  C_26
   21  A    between atoms: C_26  and  C_27
   22  A    between atoms: C_28  and  O_29
   23  A    between atoms: O_29  and  C_30
                            x       y       z     vdW  Elec       q    Type
                         _______ _______ _______ _____ _____    ______ ____

>  <TORSDO>
F 20

>  <SCORE>
-6.161

>  <RMSD_LB>
2.973

>  <RMSD_UB>
9.867

$$$$
CHEMBL172590
 OpenBabel10162523443D

 35 35  0  0  1  0  0  0  0  0999 V2000
  135.4210  135.7650  153.4320 C   0  0  0  0  0  0  0  0  0  0  0  0
  134.0730  135.4000  153.4000 C   0  0  0  0  0  3  0  0  0  0  0  0
  133.4340  135.1350  152.1860 C   0  0  0  0  0  3  0  0  0  0  0  0
  134.1250  135.2390  150.9730 C   0  0  0  0  0  0  0  0  0  0  0  0
  135.4800  135.6210  150.9880 C   0  0  0  0  0  0  0  0  0  0  0  0
  136.1220  135.8430  152.2170 C   0  0  0  0  0  3  0  0  0  0  0  0
  136.3000  135.7870  149.8990 O   0  0  0  0  0  0  0  0  0  0  0  0
  136.3480  137.0940  149.3330 C   0  0  0  0  0  1  0  0  0  0  0  0
  133.5600  134.9770  149.7570 O   0  0  0  0  0  0  0  0  0  0  0  0
  132.8960  133.7250  149.5700 C   0  0  0  0  0  2  0  0  0  0  0  0
  133.0320  133.3450  148.0890 C   0  0  1  0  0  3  0  0  0  0  0  0
  131.8070  133.6250  147.4000 O   0  0  0  0  0  0  0  0  0  0  0  0
  132.0040  133.9300  146.5010 H   0  0  0  0  0  0  0  0  0  0  0  0
  134.1770  134.1070  147.4020 C   0  0  0  0  0  2  0  0  0  0  0  0
  135.4770  133.6700  147.9120 N   0  0  0  0  0  4  0  0  0  0  0  0
  135.3310  133.0220  148.6870 H   0  0  0  0  0  0  0  0  0  0  0  0
  135.9970  134.4880  148.2270 H   0  0  0  0  0  0  0  0  0  0  0  0
  136.2420  133.0010  146.8690 C   0  0  0  0  0  2  0  0  0  0  0  0
  137.2260  133.9940  146.2580 C   0  0  0  0  0  2  0  0  0  0  0  0
  137.3860  133.7170  144.7650 C   0  0  0  0  0  2  0  0  0  0  0  0
  136.6770  132.4330  144.3580 C   0  0  0  0  0  2  0  0  0  0  0  0
  137.2350  131.9020  143.0490 C   0  0  0  0  0  1  0  0  0  0  0  0
  136.0890  136.0920  154.7380 C   0  0  0  0  0  2  0  0  0  0  0  0
  137.5990  137.9870  155.0510 C   0  0  0  0  0  0  0  0  0  0  0  0
  136.7590  138.6160  155.6870 O   0  0  0  0  0  0  0  0  0  0  0  0
  137.3750  136.7160  154.5640 N   0  0  0  0  0  0  0  0  0  0  0  0
  138.0950  136.2350  154.0960 H   0  0  0  0  0  0  0  0  0  0  0  0
  138.9750  138.5450  154.7640 C   0  0  0  0  0  2  0  0  0  0  0  0
  140.0230  137.9950  155.7240 C   0  0  0  0  0  2  0  0  0  0  0  0
  141.4450  138.2230  155.2180 C   0  0  0  0  0  2  0  0  0  0  0  0
  141.4320  138.4680  153.7080 C   0  0  0  0  0  2  0  0  0  0  0  0
  142.4260  137.5640  152.9860 C   0  0  0  0  0  2  0  0  0  0  0  0
  142.0400  137.3970  151.5170 C   0  0  0  0  0  2  0  0  0  0  0  0
  139.9560  136.9750  150.1760 C   0  0  0  0  0  1  0  0  0  0  0  0
  140.5890  137.8090  151.2770 C   0  0  0  0  0  2  0  0  0  0  0  0
  1 23  1  0  0  0  0
  2  1  1  0  0  0  0
  3  2  2  0  0  0  0
  4  5  2  0  0  0  0
  4  3  1  0  0  0  0
  5  6  1  0  0  0  0
  6  1  2  0  0  0  0
  7  5  1  0  0  0  0
  8  7  1  0  0  0  0
  9  4  1  0  0  0  0
 10  9  1  0  0  0  0
 11 14  1  6  0  0  0
 11 10  1  0  0  0  0
 12 11  1  0  0  0  0
 13 12  1  0  0  0  0
 14 15  1  0  0  0  0
 15 17  1  0  0  0  0
 15 16  1  0  0  0  0
 18 15  1  0  0  0  0
 19 18  1  0  0  0  0
 20 19  1  0  0  0  0
 21 20  1  0  0  0  0
 22 21  1  0  0  0  0
 24 25  2  0  0  0  0
 26 23  1  0  0  0  0
 26 24  1  0  0  0  0
 27 26  1  0  0  0  0
 28 24  1  0  0  0  0
 28 29  1  0  0  0  0
 30 29  1  0  0  0  0
 31 30  1  0  0  0  0
 32 31  1  0  0  0  0
 33 32  1  0  0  0  0
 34 35  1  0  0  0  0
 35 33  1  0  0  0  0
M  END
>  <MODEL>
6

>  <REMARK>
 VINA RESULT:    -6.002      3.258      8.703
 INTER + INTRA:         -15.569
 INTER:                 -13.330
 INTRA:                  -2.238
 UNBOUND:                -2.725
  Name = CHEMBL172590
  23 active torsions:
  status: ('A' for Active; 'I' for Inactive)
    1  A    between atoms: C_1  and  C_2
    2  A    between atoms: C_2  and  C_3
    3  A    between atoms: C_3  and  C_4
    4  A    between atoms: C_4  and  C_5
    5  A    between atoms: C_5  and  C_6
    6  A    between atoms: C_6  and  C_7
    7  A    between atoms: C_7  and  C_8
    8  A    between atoms: C_8  and  C_9
    9  A    between atoms: N_11  and  C_12
   10  A    between atoms: C_12  and  C_13
   11  A    between atoms: C_16  and  O_17
   12  A    between atoms: O_17  and  C_18
   13  A    between atoms: C_18  and  C_19
   14  A    between atoms: C_19  and  O_20
   15  A    between atoms: C_19  and  C_21
   16  A    between atoms: C_21  and  N_22
   17  A    between atoms: N_22  and  C_23
   18  A    between atoms: C_23  and  C_24
   19  A    between atoms: C_24  and  C_25
   20  A    between atoms: C_25  and  C_26
   21  A    between atoms: C_26  and  C_27
   22  A    between atoms: C_28  and  O_29
   23  A    between atoms: O_29  and  C_30
                            x       y       z     vdW  Elec       q    Type
                         _______ _______ _______ _____ _____    ______ ____

>  <TORSDO>
F 20

>  <SCORE>
-6.002

>  <RMSD_LB>
3.258

>  <RMSD_UB>
8.703

$$$$
CHEMBL172590
 OpenBabel10162523443D

 35 35  0  0  1  0  0  0  0  0999 V2000
  138.0110  137.4910  154.8370 C   0  0  0  0  0  0  0  0  0  0  0  0
  139.0040  137.7640  155.7820 C   0  0  0  0  0  3  0  0  0  0  0  0
  140.2660  138.2100  155.3820 C   0  0  0  0  0  3  0  0  0  0  0  0
  140.5710  138.3840  154.0270 C   0  0  0  0  0  0  0  0  0  0  0  0
  139.5860  138.1000  153.0620 C   0  0  0  0  0  0  0  0  0  0  0  0
  138.3080  137.6930  153.4780 C   0  0  0  0  0  3  0  0  0  0  0  0
  139.7170  138.1990  151.6990 O   0  0  0  0  0  0  0  0  0  0  0  0
  139.2770  139.4190  151.1070 C   0  0  0  0  0  1  0  0  0  0  0  0
  141.7800  138.8330  153.5770 O   0  0  0  0  0  0  0  0  0  0  0  0
  142.9670  138.3200  154.1870 C   0  0  0  0  0  2  0  0  0  0  0  0
  143.7060  139.5030  154.8290 C   0  0  1  0  0  3  0  0  0  0  0  0
  143.4230  139.5500  156.2320 O   0  0  0  0  0  0  0  0  0  0  0  0
  142.9220  138.7590  156.4870 H   0  0  0  0  0  0  0  0  0  0  0  0
  145.2270  139.4090  154.6280 C   0  0  0  0  0  2  0  0  0  0  0  0
  145.5480  138.8400  153.3180 N   0  0  0  0  0  4  0  0  0  0  0  0
  144.8670  138.1130  153.0940 H   0  0  0  0  0  0  0  0  0  0  0  0
  146.4880  138.4470  153.3530 H   0  0  0  0  0  0  0  0  0  0  0  0
  145.5090  139.8660  152.2860 C   0  0  0  0  0  2  0  0  0  0  0  0
  146.8060  140.6670  152.3290 C   0  0  0  0  0  2  0  0  0  0  0  0
  146.4950  142.1580  152.4410 C   0  0  0  0  0  2  0  0  0  0  0  0
  145.6690  142.6440  151.2590 C   0  0  0  0  0  2  0  0  0  0  0  0
  146.5170  142.7070  150.0000 C   0  0  0  0  0  1  0  0  0  0  0  0
  136.6710  136.9700  155.2710 C   0  0  0  0  0  2  0  0  0  0  0  0
  135.0360  135.6670  154.0060 C   0  0  0  0  0  0  0  0  0  0  0  0
  134.2220  136.5840  154.0150 O   0  0  0  0  0  0  0  0  0  0  0  0
  136.2880  135.7690  154.5740 N   0  0  0  0  0  0  0  0  0  0  0  0
  136.9230  135.0180  154.5050 H   0  0  0  0  0  0  0  0  0  0  0  0
  134.7440  134.3390  153.3430 C   0  0  0  0  0  2  0  0  0  0  0  0
  135.8230  133.9580  152.3370 C   0  0  0  0  0  2  0  0  0  0  0  0
  135.4450  134.3520  150.9110 C   0  0  0  0  0  2  0  0  0  0  0  0
  134.1750  133.6170  150.4820 C   0  0  0  0  0  2  0  0  0  0  0  0
  133.1990  134.5510  149.7750 C   0  0  0  0  0  2  0  0  0  0  0  0
  133.7190  135.9880  149.7830 C   0  0  0  0  0  2  0  0  0  0  0  0
  132.5650  136.9940  147.7890 C   0  0  0  0  0  1  0  0  0  0  0  0
  132.6470  136.9650  149.3060 C   0  0  0  0  0  2  0  0  0  0  0  0
  1 23  1  0  0  0  0
  1  2  1  0  0  0  0
  3  2  2  0  0  0  0
  4  3  1  0  0  0  0
  5  6  1  0  0  0  0
  5  4  2  0  0  0  0
  6  1  2  0  0  0  0
  7  5  1  0  0  0  0
  8  7  1  0  0  0  0
  9  4  1  0  0  0  0
  9 10  1  0  0  0  0
 11 10  1  1  0  0  0
 11 12  1  0  0  0  0
 12 13  1  0  0  0  0
 14 11  1  0  0  0  0
 15 17  1  0  0  0  0
 15 14  1  0  0  0  0
 16 15  1  0  0  0  0
 18 19  1  0  0  0  0
 18 15  1  0  0  0  0
 19 20  1  0  0  0  0
 21 20  1  0  0  0  0
 22 21  1  0  0  0  0
 24 25  2  0  0  0  0
 24 26  1  0  0  0  0
 26 23  1  0  0  0  0
 27 26  1  0  0  0  0
 28 24  1  0  0  0  0
 29 28  1  0  0  0  0
 30 29  1  0  0  0  0
 31 30  1  0  0  0  0
 32 33  1  0  0  0  0
 32 31  1  0  0  0  0
 34 35  1  0  0  0  0
 35 33  1  0  0  0  0
M  END
>  <MODEL>
7

>  <REMARK>
 VINA RESULT:    -5.991      2.394      3.791
 INTER + INTRA:         -15.545
 INTER:                 -14.050
 INTRA:                  -1.495
 UNBOUND:                -2.725
  Name = CHEMBL172590
  23 active torsions:
  status: ('A' for Active; 'I' for Inactive)
    1  A    between atoms: C_1  and  C_2
    2  A    between atoms: C_2  and  C_3
    3  A    between atoms: C_3  and  C_4
    4  A    between atoms: C_4  and  C_5
    5  A    between atoms: C_5  and  C_6
    6  A    between atoms: C_6  and  C_7
    7  A    between atoms: C_7  and  C_8
    8  A    between atoms: C_8  and  C_9
    9  A    between atoms: N_11  and  C_12
   10  A    between atoms: C_12  and  C_13
   11  A    between atoms: C_16  and  O_17
   12  A    between atoms: O_17  and  C_18
   13  A    between atoms: C_18  and  C_19
   14  A    between atoms: C_19  and  O_20
   15  A    between atoms: C_19  and  C_21
   16  A    between atoms: C_21  and  N_22
   17  A    between atoms: N_22  and  C_23
   18  A    between atoms: C_23  and  C_24
   19  A    between atoms: C_24  and  C_25
   20  A    between atoms: C_25  and  C_26
   21  A    between atoms: C_26  and  C_27
   22  A    between atoms: C_28  and  O_29
   23  A    between atoms: O_29  and  C_30
                            x       y       z     vdW  Elec       q    Type
                         _______ _______ _______ _____ _____    ______ ____

>  <TORSDO>
F 20

>  <SCORE>
-5.991

>  <RMSD_LB>
2.394

>  <RMSD_UB>
3.791

$$$$
CHEMBL172590
 OpenBabel10162523443D

 35 35  0  0  1  0  0  0  0  0999 V2000
  141.7900  137.5320  151.6810 C   0  0  0  0  0  0  0  0  0  0  0  0
  140.4040  137.3980  151.5640 C   0  0  0  0  0  3  0  0  0  0  0  0
  139.5570  137.8230  152.5900 C   0  0  0  0  0  3  0  0  0  0  0  0
  140.0750  138.3830  153.7640 C   0  0  0  0  0  0  0  0  0  0  0  0
  141.4700  138.5110  153.9030 C   0  0  0  0  0  0  0  0  0  0  0  0
  142.3090  138.1190  152.8460 C   0  0  0  0  0  3  0  0  0  0  0  0
  142.1460  139.0200  154.9840 O   0  0  0  0  0  0  0  0  0  0  0  0
  143.5300  139.3020  154.7930 C   0  0  0  0  0  1  0  0  0  0  0  0
  139.2980  138.8320  154.7940 O   0  0  0  0  0  0  0  0  0  0  0  0
  138.9180  137.9060  155.8140 C   0  0  0  0  0  2  0  0  0  0  0  0
  137.4280  138.1280  156.1100 C   0  0  1  0  0  3  0  0  0  0  0  0
  136.9520  139.2670  155.3830 O   0  0  0  0  0  0  0  0  0  0  0  0
  137.6370  139.9540  155.3740 H   0  0  0  0  0  0  0  0  0  0  0  0
  136.5790  136.9030  155.7340 C   0  0  0  0  0  2  0  0  0  0  0  0
  136.8660  136.4660  154.3670 N   0  0  0  0  0  4  0  0  0  0  0  0
  137.7940  136.0430  154.3400 H   0  0  0  0  0  0  0  0  0  0  0  0
  136.8270  137.2760  153.7490 H   0  0  0  0  0  0  0  0  0  0  0  0
  135.8830  135.4890  153.9200 C   0  0  0  0  0  2  0  0  0  0  0  0
  135.5980  135.7090  152.4380 C   0  0  0  0  0  2  0  0  0  0  0  0
  134.1140  135.9990  152.2290 C   0  0  0  0  0  2  0  0  0  0  0  0
  133.4940  135.0320  151.2300 C   0  0  0  0  0  2  0  0  0  0  0  0
  134.0890  133.6440  151.3850 C   0  0  0  0  0  1  0  0  0  0  0  0
  142.6970  137.0320  150.5910 C   0  0  0  0  0  2  0  0  0  0  0  0
  145.0820  136.9030  150.0770 C   0  0  0  0  0  0  0  0  0  0  0  0
  144.9280  135.9110  149.3710 O   0  0  0  0  0  0  0  0  0  0  0  0
  144.0360  137.5500  150.7010 N   0  0  0  0  0  0  0  0  0  0  0  0
  144.2050  138.3670  151.2230 H   0  0  0  0  0  0  0  0  0  0  0  0
  146.4420  137.5230  150.3070 C   0  0  0  0  0  2  0  0  0  0  0  0
  146.3410  139.0090  150.6290 C   0  0  0  0  0  2  0  0  0  0  0  0
  146.7150  139.8840  149.4350 C   0  0  0  0  0  2  0  0  0  0  0  0
  145.8390  141.1370  149.4070 C   0  0  0  0  0  2  0  0  0  0  0  0
  146.4420  142.2600  150.2430 C   0  0  0  0  0  2  0  0  0  0  0  0
  145.5810  142.5450  151.4720 C   0  0  0  0  0  2  0  0  0  0  0  0
  147.7940  141.8980  152.4740 C   0  0  0  0  0  1  0  0  0  0  0  0
  146.3440  142.2490  152.7610 C   0  0  0  0  0  2  0  0  0  0  0  0
  1  6  1  0  0  0  0
  2  1  2  0  0  0  0
  2  3  1  0  0  0  0
  3  4  2  0  0  0  0
  4  5  1  0  0  0  0
  4  9  1  0  0  0  0
  5  7  1  0  0  0  0
  6  5  2  0  0  0  0
  8  7  1  0  0  0  0
  9 10  1  0  0  0  0
 10 11  1  0  0  0  0
 11 14  1  6  0  0  0
 12 11  1  0  0  0  0
 13 12  1  0  0  0  0
 15 14  1  0  0  0  0
 16 15  1  0  0  0  0
 17 15  1  0  0  0  0
 18 15  1  0  0  0  0
 19 18  1  0  0  0  0
 20 19  1  0  0  0  0
 21 22  1  0  0  0  0
 21 20  1  0  0  0  0
 23 26  1  0  0  0  0
 23  1  1  0  0  0  0
 24 28  1  0  0  0  0
 24 26  1  0  0  0  0
 25 24  2  0  0  0  0
 26 27  1  0  0  0  0
 28 29  1  0  0  0  0
 30 29  1  0  0  0  0
 31 30  1  0  0  0  0
 31 32  1  0  0  0  0
 32 33  1  0  0  0  0
 33 35  1  0  0  0  0
 34 35  1  0  0  0  0
M  END
>  <MODEL>
8

>  <REMARK>
 VINA RESULT:    -5.904      3.133      9.446
 INTER + INTRA:         -15.359
 INTER:                 -13.611
 INTRA:                  -1.748
 UNBOUND:                -2.725
  Name = CHEMBL172590
  23 active torsions:
  status: ('A' for Active; 'I' for Inactive)
    1  A    between atoms: C_1  and  C_2
    2  A    between atoms: C_2  and  C_3
    3  A    between atoms: C_3  and  C_4
    4  A    between atoms: C_4  and  C_5
    5  A    between atoms: C_5  and  C_6
    6  A    between atoms: C_6  and  C_7
    7  A    between atoms: C_7  and  C_8
    8  A    between atoms: C_8  and  C_9
    9  A    between atoms: N_11  and  C_12
   10  A    between atoms: C_12  and  C_13
   11  A    between atoms: C_16  and  O_17
   12  A    between atoms: O_17  and  C_18
   13  A    between atoms: C_18  and  C_19
   14  A    between atoms: C_19  and  O_20
   15  A    between atoms: C_19  and  C_21
   16  A    between atoms: C_21  and  N_22
   17  A    between atoms: N_22  and  C_23
   18  A    between atoms: C_23  and  C_24
   19  A    between atoms: C_24  and  C_25
   20  A    between atoms: C_25  and  C_26
   21  A    between atoms: C_26  and  C_27
   22  A    between atoms: C_28  and  O_29
   23  A    between atoms: O_29  and  C_30
                            x       y       z     vdW  Elec       q    Type
                         _______ _______ _______ _____ _____    ______ ____

>  <TORSDO>
F 20

>  <SCORE>
-5.904

>  <RMSD_LB>
3.133

>  <RMSD_UB>
9.446

$$$$
CHEMBL172590
 OpenBabel10162523443D

 35 35  0  0  1  0  0  0  0  0999 V2000
  144.9140  137.9060  152.9510 C   0  0  0  0  0  0  0  0  0  0  0  0
  144.6480  137.1340  151.8170 C   0  0  0  0  0  3  0  0  0  0  0  0
  143.3390  136.9600  151.3620 C   0  0  0  0  0  3  0  0  0  0  0  0
  142.2600  137.5450  152.0370 C   0  0  0  0  0  0  0  0  0  0  0  0
  142.5100  138.3130  153.1890 C   0  0  0  0  0  0  0  0  0  0  0  0
  143.8340  138.5160  153.6120 C   0  0  0  0  0  3  0  0  0  0  0  0
  141.5780  138.9420  153.9770 O   0  0  0  0  0  0  0  0  0  0  0  0
  142.0050  139.3310  155.2800 C   0  0  0  0  0  1  0  0  0  0  0  0
  140.9620  137.4250  151.6320 O   0  0  0  0  0  0  0  0  0  0  0  0
  140.4150  138.4400  150.7850 C   0  0  0  0  0  2  0  0  0  0  0  0
  139.0980  138.9110  151.4170 C   0  0  1  0  0  3  0  0  0  0  0  0
  138.1000  139.0700  150.4010 O   0  0  0  0  0  0  0  0  0  0  0  0
  137.8720  140.0090  150.3170 H   0  0  0  0  0  0  0  0  0  0  0  0
  138.5810  137.9210  152.4740 C   0  0  0  0  0  2  0  0  0  0  0  0
  138.3370  138.5970  153.7490 N   0  0  0  0  0  4  0  0  0  0  0  0
  137.3870  138.9690  153.7520 H   0  0  0  0  0  0  0  0  0  0  0  0
  139.0140  139.3510  153.8560 H   0  0  0  0  0  0  0  0  0  0  0  0
  138.4900  137.6700  154.8620 C   0  0  0  0  0  2  0  0  0  0  0  0
  137.1090  137.2490  155.3550 C   0  0  0  0  0  2  0  0  0  0  0  0
  137.1750  135.8500  155.9620 C   0  0  0  0  0  2  0  0  0  0  0  0
  136.4400  135.7860  157.2930 C   0  0  0  0  0  2  0  0  0  0  0  0
  136.7580  137.0040  158.1420 C   0  0  0  0  0  1  0  0  0  0  0  0
  146.3200  138.0520  153.4590 C   0  0  0  0  0  2  0  0  0  0  0  0
  148.1540  139.6350  153.1420 C   0  0  0  0  0  0  0  0  0  0  0  0
  148.9710  138.7340  152.9800 O   0  0  0  0  0  0  0  0  0  0  0  0
  146.8120  139.4020  153.3550 N   0  0  0  0  0  0  0  0  0  0  0  0
  146.1880  140.1590  153.4380 H   0  0  0  0  0  0  0  0  0  0  0  0
  148.5480  141.0950  153.0970 C   0  0  0  0  0  2  0  0  0  0  0  0
  147.3870  141.9810  152.6610 C   0  0  0  0  0  2  0  0  0  0  0  0
  147.4760  142.3610  151.1840 C   0  0  0  0  0  2  0  0  0  0  0  0
  146.0730  142.5340  150.6010 C   0  0  0  0  0  2  0  0  0  0  0  0
  145.0730  141.5880  151.2580 C   0  0  0  0  0  2  0  0  0  0  0  0
  144.5320  140.5810  150.2440 C   0  0  0  0  0  2  0  0  0  0  0  0
  146.4960  139.1410  149.6200 C   0  0  0  0  0  1  0  0  0  0  0  0
  145.5720  140.2620  149.1730 C   0  0  0  0  0  2  0  0  0  0  0  0
  1 23  1  0  0  0  0
  1  6  1  0  0  0  0
  2  1  2  0  0  0  0
  3  2  1  0  0  0  0
  3  4  2  0  0  0  0
  4  5  1  0  0  0  0
  5  6  2  0  0  0  0
  5  7  1  0  0  0  0
  7  8  1  0  0  0  0
  9  4  1  0  0  0  0
 10  9  1  0  0  0  0
 11 10  1  6  0  0  0
 11 14  1  0  0  0  0
 12 11  1  0  0  0  0
 13 12  1  0  0  0  0
 14 15  1  0  0  0  0
 15 16  1  0  0  0  0
 15 17  1  0  0  0  0
 15 18  1  0  0  0  0
 18 19  1  0  0  0  0
 19 20  1  0  0  0  0
 20 21  1  0  0  0  0
 21 22  1  0  0  0  0
 24 26  1  0  0  0  0
 25 24  2  0  0  0  0
 26 27  1  0  0  0  0
 26 23  1  0  0  0  0
 28 24  1  0  0  0  0
 29 28  1  0  0  0  0
 30 29  1  0  0  0  0
 31 30  1  0  0  0  0
 31 32  1  0  0  0  0
 33 32  1  0  0  0  0
 35 34  1  0  0  0  0
 35 33  1  0  0  0  0
M  END
>  <MODEL>
9

>  <REMARK>
 VINA RESULT:    -5.877      4.247     10.174
 INTER + INTRA:         -15.302
 INTER:                 -12.577
 INTRA:                  -2.725
 UNBOUND:                -2.725
  Name = CHEMBL172590
  23 active torsions:
  status: ('A' for Active; 'I' for Inactive)
    1  A    between atoms: C_1  and  C_2
    2  A    between atoms: C_2  and  C_3
    3  A    between atoms: C_3  and  C_4
    4  A    between atoms: C_4  and  C_5
    5  A    between atoms: C_5  and  C_6
    6  A    between atoms: C_6  and  C_7
    7  A    between atoms: C_7  and  C_8
    8  A    between atoms: C_8  and  C_9
    9  A    between atoms: N_11  and  C_12
   10  A    between atoms: C_12  and  C_13
   11  A    between atoms: C_16  and  O_17
   12  A    between atoms: O_17  and  C_18
   13  A    between atoms: C_18  and  C_19
   14  A    between atoms: C_19  and  O_20
   15  A    between atoms: C_19  and  C_21
   16  A    between atoms: C_21  and  N_22
   17  A    between atoms: N_22  and  C_23
   18  A    between atoms: C_23  and  C_24
   19  A    between atoms: C_24  and  C_25
   20  A    between atoms: C_25  and  C_26
   21  A    between atoms: C_26  and  C_27
   22  A    between atoms: C_28  and  O_29
   23  A    between atoms: O_29  and  C_30
                            x       y       z     vdW  Elec       q    Type
                         _______ _______ _______ _____ _____    ______ ____

>  <TORSDO>
F 20

>  <SCORE>
-5.877

>  <RMSD_LB>
4.247

>  <RMSD_UB>
10.174

$$$$
