CHEMBL80662
 OpenBabel10172500073D

 27 27  0  0  1  0  0  0  0  0999 V2000
  144.2070  139.2830  150.9330 N   0  0  0  0  0  0  0  0  0  0  0  0
  143.5420  138.8830  149.9100 C   0  0  1  0  0  3  0  0  0  0  0  0
  142.4770  138.0430  150.0090 N   0  0  0  0  0  0  0  0  0  0  0  0
  143.9200  138.9600  151.8180 H   0  0  0  0  0  0  0  0  0  0  0  0
  141.8150  138.0560  149.2820 H   0  0  0  0  0  0  0  0  0  0  0  0
  143.8370  139.3380  148.2390 S   0  0  0  0  0  0  0  0  0  0  0  0
  143.9540  140.6900  148.1510 H   0  0  0  0  0  0  0  0  0  0  0  0
  145.3500  140.1730  150.8770 C   0  0  0  0  0  2  0  0  0  0  0  0
  145.0400  141.5120  151.5500 C   0  0  0  0  0  2  0  0  0  0  0  0
  145.8510  142.6210  150.8850 C   0  0  0  0  0  2  0  0  0  0  0  0
  147.1110  142.0940  150.2030 C   0  0  0  0  0  2  0  0  0  0  0  0
  148.3540  142.4860  151.0050 C   0  0  0  0  0  2  0  0  0  0  0  0
  148.7860  141.3600  151.9420 C   0  0  0  0  0  2  0  0  0  0  0  0
  149.0190  141.8830  153.3590 C   0  0  0  0  0  2  0  0  0  0  0  0
  147.2350  140.3790  154.3020 C   0  0  0  0  0  1  0  0  0  0  0  0
  147.7400  141.8080  154.1910 C   0  0  0  0  0  2  0  0  0  0  0  0
  142.2520  137.1370  151.1050 C   0  0  0  0  0  2  0  0  0  0  0  0
  141.0720  137.5670  151.9500 C   0  0  0  0  0  0  0  0  0  0  0  0
  139.7720  137.5700  151.4340 C   0  0  0  0  0  3  0  0  0  0  0  0
  138.6840  137.9210  152.2430 C   0  0  0  0  0  3  0  0  0  0  0  0
  138.8840  138.2900  153.5800 C   0  0  0  0  0  0  0  0  0  0  0  0
  140.1750  138.3200  154.1110 C   0  0  0  0  0  0  0  0  0  0  0  0
  141.2510  137.9580  153.2860 C   0  0  0  0  0  3  0  0  0  0  0  0
  137.7860  138.6080  154.3340 O   0  0  0  0  0  0  0  0  0  0  0  0
  137.4480  139.4820  154.3240 H   0  0  0  0  0  0  0  0  0  0  0  0
  140.5640  138.6590  155.3810 O   0  0  0  0  0  0  0  0  0  0  0  0
  140.4500  137.6820  156.4020 C   0  0  0  0  0  1  0  0  0  0  0  0
  1  4  1  0  0  0  0
  2  6  1  1  0  0  0
  2  3  1  0  0  0  0
  2  1  1  0  0  0  0
  3 17  1  0  0  0  0
  5  3  1  0  0  0  0
  7  6  1  0  0  0  0
  8  1  1  0  0  0  0
  8  9  1  0  0  0  0
 10  9  1  0  0  0  0
 11 10  1  0  0  0  0
 11 12  1  0  0  0  0
 12 13  1  0  0  0  0
 13 14  1  0  0  0  0
 14 16  1  0  0  0  0
 16 15  1  0  0  0  0
 17 18  1  0  0  0  0
 18 23  1  0  0  0  0
 19 18  2  0  0  0  0
 19 20  1  0  0  0  0
 20 21  2  0  0  0  0
 21 22  1  0  0  0  0
 21 24  1  0  0  0  0
 22 26  1  0  0  0  0
 23 22  2  0  0  0  0
 25 24  1  0  0  0  0
 26 27  1  0  0  0  0
M  END
>  <MODEL>
1

>  <REMARK>
 VINA RESULT:    -6.513      0.000      0.000
 INTER + INTRA:         -11.939
 INTER:                 -10.665
 INTRA:                  -1.274
 UNBOUND:                -0.857
  Name = CHEMBL80662
  15 active torsions:
  status: ('A' for Active; 'I' for Inactive)
    1  A    between atoms: C_1  and  C_2
    2  A    between atoms: C_2  and  C_3
    3  A    between atoms: C_3  and  C_4
    4  A    between atoms: C_4  and  C_5
    5  A    between atoms: C_5  and  C_6
    6  A    between atoms: C_6  and  C_7
    7  A    between atoms: C_7  and  C_8
    8  A    between atoms: C_8  and  C_9
    9  A    between atoms: C_9  and  N_10
   10  A    between atoms: C_11  and  S_12
   11  A    between atoms: N_13  and  C_14
   12  A    between atoms: C_14  and  C_15
   13  A    between atoms: C_18  and  O_19
   14  A    between atoms: C_20  and  O_21
   15  A    between atoms: O_21  and  C_22
                            x       y       z     vdW  Elec       q    Type
                         _______ _______ _______ _____ _____    ______ ____

>  <TORSDO>
F 13

>  <SCORE>
-6.513

>  <RMSD_LB>
0.000

>  <RMSD_UB>
0.000

$$$$
CHEMBL80662
 OpenBabel10172500073D

 27 27  0  0  1  0  0  0  0  0999 V2000
  145.8280  139.1750  150.2100 N   0  0  0  0  0  0  0  0  0  0  0  0
  145.0910  138.4350  149.4630 C   0  0  1  0  0  3  0  0  0  0  0  0
  144.2060  137.5340  149.9690 N   0  0  0  0  0  0  0  0  0  0  0  0
  145.7350  139.0760  151.1850 H   0  0  0  0  0  0  0  0  0  0  0  0
  143.4480  137.2690  149.4000 H   0  0  0  0  0  0  0  0  0  0  0  0
  145.0520  138.4450  147.7070 S   0  0  0  0  0  0  0  0  0  0  0  0
  144.1610  137.5150  147.2700 H   0  0  0  0  0  0  0  0  0  0  0  0
  146.7880  140.1440  149.7180 C   0  0  0  0  0  2  0  0  0  0  0  0
  146.2080  141.5600  149.7500 C   0  0  0  0  0  2  0  0  0  0  0  0
  146.7620  142.3140  150.9570 C   0  0  0  0  0  2  0  0  0  0  0  0
  145.7270  142.4770  152.0680 C   0  0  0  0  0  2  0  0  0  0  0  0
  146.3160  142.0410  153.4110 C   0  0  0  0  0  2  0  0  0  0  0  0
  147.8360  141.9100  153.3330 C   0  0  0  0  0  2  0  0  0  0  0  0
  148.3300  140.7340  154.1750 C   0  0  0  0  0  2  0  0  0  0  0  0
  147.0860  138.8800  155.3350 C   0  0  0  0  0  1  0  0  0  0  0  0
  147.4300  139.5120  153.9970 C   0  0  0  0  0  2  0  0  0  0  0  0
  144.3000  136.9430  151.2780 C   0  0  0  0  0  2  0  0  0  0  0  0
  143.4170  137.6600  152.2770 C   0  0  0  0  0  0  0  0  0  0  0  0
  143.9600  138.4920  153.2610 C   0  0  0  0  0  3  0  0  0  0  0  0
  143.1270  139.1890  154.1450 C   0  0  0  0  0  3  0  0  0  0  0  0
  141.7350  139.0500  154.0670 C   0  0  0  0  0  0  0  0  0  0  0  0
  141.1690  138.2050  153.1100 C   0  0  0  0  0  0  0  0  0  0  0  0
  142.0200  137.5210  152.2290 C   0  0  0  0  0  3  0  0  0  0  0  0
  140.9620  139.7650  154.9440 O   0  0  0  0  0  0  0  0  0  0  0  0
  140.3660  139.3200  155.5140 H   0  0  0  0  0  0  0  0  0  0  0  0
  139.8430  137.9370  152.8890 O   0  0  0  0  0  0  0  0  0  0  0  0
  139.1940  138.6000  151.8170 C   0  0  0  0  0  1  0  0  0  0  0  0
  1  4  1  0  0  0  0
  2  6  1  1  0  0  0
  2  3  1  0  0  0  0
  2  1  1  0  0  0  0
  3 17  1  0  0  0  0
  5  3  1  0  0  0  0
  7  6  1  0  0  0  0
  8  9  1  0  0  0  0
  8  1  1  0  0  0  0
  9 10  1  0  0  0  0
 10 11  1  0  0  0  0
 11 12  1  0  0  0  0
 13 12  1  0  0  0  0
 13 14  1  0  0  0  0
 16 14  1  0  0  0  0
 16 15  1  0  0  0  0
 17 18  1  0  0  0  0
 18 19  1  0  0  0  0
 19 20  2  0  0  0  0
 21 20  1  0  0  0  0
 21 24  1  0  0  0  0
 22 21  2  0  0  0  0
 23 18  2  0  0  0  0
 23 22  1  0  0  0  0
 24 25  1  0  0  0  0
 26 22  1  0  0  0  0
 27 26  1  0  0  0  0
M  END
>  <MODEL>
2

>  <REMARK>
 VINA RESULT:    -6.205      1.624      2.659
 INTER + INTRA:         -11.415
 INTER:                  -9.782
 INTRA:                  -1.632
 UNBOUND:                -0.857
  Name = CHEMBL80662
  15 active torsions:
  status: ('A' for Active; 'I' for Inactive)
    1  A    between atoms: C_1  and  C_2
    2  A    between atoms: C_2  and  C_3
    3  A    between atoms: C_3  and  C_4
    4  A    between atoms: C_4  and  C_5
    5  A    between atoms: C_5  and  C_6
    6  A    between atoms: C_6  and  C_7
    7  A    between atoms: C_7  and  C_8
    8  A    between atoms: C_8  and  C_9
    9  A    between atoms: C_9  and  N_10
   10  A    between atoms: C_11  and  S_12
   11  A    between atoms: N_13  and  C_14
   12  A    between atoms: C_14  and  C_15
   13  A    between atoms: C_18  and  O_19
   14  A    between atoms: C_20  and  O_21
   15  A    between atoms: O_21  and  C_22
                            x       y       z     vdW  Elec       q    Type
                         _______ _______ _______ _____ _____    ______ ____

>  <TORSDO>
F 13

>  <SCORE>
-6.205

>  <RMSD_LB>
1.624

>  <RMSD_UB>
2.659

$$$$
CHEMBL80662
 OpenBabel10172500073D

 27 27  0  0  1  0  0  0  0  0999 V2000
  139.7870  138.1250  153.7440 N   0  0  0  0  0  0  0  0  0  0  0  0
  138.6330  137.7560  153.3180 C   0  0  1  0  0  3  0  0  0  0  0  0
  137.5890  137.5050  154.1530 N   0  0  0  0  0  0  0  0  0  0  0  0
  139.9030  138.2280  154.7160 H   0  0  0  0  0  0  0  0  0  0  0  0
  136.6800  137.5770  153.7830 H   0  0  0  0  0  0  0  0  0  0  0  0
  138.1690  137.5300  151.6390 S   0  0  0  0  0  0  0  0  0  0  0  0
  138.6810  138.5420  150.8880 H   0  0  0  0  0  0  0  0  0  0  0  0
  140.9300  138.3980  152.8940 C   0  0  0  0  0  2  0  0  0  0  0  0
  142.2000  138.5930  153.7250 C   0  0  0  0  0  2  0  0  0  0  0  0
  143.4220  138.5730  152.8080 C   0  0  0  0  0  2  0  0  0  0  0  0
  143.4200  139.7270  151.8090 C   0  0  0  0  0  2  0  0  0  0  0  0
  144.8410  140.2540  151.6020 C   0  0  0  0  0  2  0  0  0  0  0  0
  144.8550  141.4530  150.6560 C   0  0  0  0  0  2  0  0  0  0  0  0
  145.8550  142.5100  151.1230 C   0  0  0  0  0  2  0  0  0  0  0  0
  147.7080  142.0400  152.7570 C   0  0  0  0  0  1  0  0  0  0  0  0
  146.2230  142.3110  152.5920 C   0  0  0  0  0  2  0  0  0  0  0  0
  137.7220  137.1430  155.5410 C   0  0  0  0  0  2  0  0  0  0  0  0
  136.5900  136.2450  155.9930 C   0  0  0  0  0  0  0  0  0  0  0  0
  136.5050  135.7930  157.3130 C   0  0  0  0  0  3  0  0  0  0  0  0
  135.4240  135.0060  157.7290 C   0  0  0  0  0  3  0  0  0  0  0  0
  134.4180  134.6450  156.8220 C   0  0  0  0  0  0  0  0  0  0  0  0
  134.4940  135.0630  155.4920 C   0  0  0  0  0  0  0  0  0  0  0  0
  135.5810  135.8570  155.0960 C   0  0  0  0  0  3  0  0  0  0  0  0
  133.3740  133.8880  157.2820 O   0  0  0  0  0  0  0  0  0  0  0  0
  133.5410  133.1040  157.7670 H   0  0  0  0  0  0  0  0  0  0  0  0
  133.6200  134.8050  154.4680 O   0  0  0  0  0  0  0  0  0  0  0  0
  133.9640  135.2450  153.1650 C   0  0  0  0  0  1  0  0  0  0  0  0
  1  4  1  0  0  0  0
  2  6  1  6  0  0  0
  2  1  1  0  0  0  0
  2  3  1  0  0  0  0
  3 17  1  0  0  0  0
  5  3  1  0  0  0  0
  7  6  1  0  0  0  0
  8  9  1  0  0  0  0
  8  1  1  0  0  0  0
 10  9  1  0  0  0  0
 11 10  1  0  0  0  0
 12 11  1  0  0  0  0
 13 14  1  0  0  0  0
 13 12  1  0  0  0  0
 14 16  1  0  0  0  0
 16 15  1  0  0  0  0
 17 18  1  0  0  0  0
 18 19  1  0  0  0  0
 19 20  2  0  0  0  0
 21 24  1  0  0  0  0
 21 20  1  0  0  0  0
 22 21  2  0  0  0  0
 23 22  1  0  0  0  0
 23 18  2  0  0  0  0
 24 25  1  0  0  0  0
 26 22  1  0  0  0  0
 27 26  1  0  0  0  0
M  END
>  <MODEL>
3

>  <REMARK>
 VINA RESULT:    -6.118      4.238      5.853
 INTER + INTRA:         -11.266
 INTER:                 -10.734
 INTRA:                  -0.532
 UNBOUND:                -0.857
  Name = CHEMBL80662
  15 active torsions:
  status: ('A' for Active; 'I' for Inactive)
    1  A    between atoms: C_1  and  C_2
    2  A    between atoms: C_2  and  C_3
    3  A    between atoms: C_3  and  C_4
    4  A    between atoms: C_4  and  C_5
    5  A    between atoms: C_5  and  C_6
    6  A    between atoms: C_6  and  C_7
    7  A    between atoms: C_7  and  C_8
    8  A    between atoms: C_8  and  C_9
    9  A    between atoms: C_9  and  N_10
   10  A    between atoms: C_11  and  S_12
   11  A    between atoms: N_13  and  C_14
   12  A    between atoms: C_14  and  C_15
   13  A    between atoms: C_18  and  O_19
   14  A    between atoms: C_20  and  O_21
   15  A    between atoms: O_21  and  C_22
                            x       y       z     vdW  Elec       q    Type
                         _______ _______ _______ _____ _____    ______ ____

>  <TORSDO>
F 13

>  <SCORE>
-6.118

>  <RMSD_LB>
4.238

>  <RMSD_UB>
5.853

$$$$
CHEMBL80662
 OpenBabel10172500073D

 27 27  0  0  1  0  0  0  0  0999 V2000
  146.7740  136.8030  148.7290 N   0  0  0  0  0  0  0  0  0  0  0  0
  147.3420  135.9380  149.4890 C   0  0  1  0  0  3  0  0  0  0  0  0
  146.7910  135.5160  150.6590 N   0  0  0  0  0  0  0  0  0  0  0  0
  145.9040  137.1640  149.0180 H   0  0  0  0  0  0  0  0  0  0  0  0
  147.0680  134.6360  151.0030 H   0  0  0  0  0  0  0  0  0  0  0  0
  148.8720  135.1320  149.1810 S   0  0  0  0  0  0  0  0  0  0  0  0
  149.0140  134.9260  147.8450 H   0  0  0  0  0  0  0  0  0  0  0  0
  147.3230  137.2880  147.4780 C   0  0  0  0  0  2  0  0  0  0  0  0
  147.3490  138.8170  147.4430 C   0  0  0  0  0  2  0  0  0  0  0  0
  146.6430  139.3720  148.6790 C   0  0  0  0  0  2  0  0  0  0  0  0
  146.1280  140.7930  148.4680 C   0  0  0  0  0  2  0  0  0  0  0  0
  146.6840  141.7260  149.5460 C   0  0  0  0  0  2  0  0  0  0  0  0
  147.0270  140.9560  150.8200 C   0  0  0  0  0  2  0  0  0  0  0  0
  148.2410  141.5650  151.5200 C   0  0  0  0  0  2  0  0  0  0  0  0
  146.3750  142.1220  153.1130 C   0  0  0  0  0  1  0  0  0  0  0  0
  147.8800  142.0600  152.9190 C   0  0  0  0  0  2  0  0  0  0  0  0
  145.8310  136.2650  151.4270 C   0  0  0  0  0  2  0  0  0  0  0  0
  146.5060  137.1280  152.4720 C   0  0  0  0  0  0  0  0  0  0  0  0
  147.8820  137.3730  152.4340 C   0  0  0  0  0  3  0  0  0  0  0  0
  148.4830  138.2140  153.3780 C   0  0  0  0  0  3  0  0  0  0  0  0
  147.7150  138.8120  154.3860 C   0  0  0  0  0  0  0  0  0  0  0  0
  146.3440  138.5630  154.4610 C   0  0  0  0  0  0  0  0  0  0  0  0
  145.7590  137.7220  153.5020 C   0  0  0  0  0  3  0  0  0  0  0  0
  148.3470  139.6410  155.2750 O   0  0  0  0  0  0  0  0  0  0  0  0
  149.1970  139.4170  155.6020 H   0  0  0  0  0  0  0  0  0  0  0  0
  145.4400  139.0460  155.3710 O   0  0  0  0  0  0  0  0  0  0  0  0
  144.2410  139.6260  154.8840 C   0  0  0  0  0  1  0  0  0  0  0  0
  1  4  1  0  0  0  0
  1  2  1  0  0  0  0
  2  6  1  6  0  0  0
  2  3  1  0  0  0  0
  3  5  1  0  0  0  0
  3 17  1  0  0  0  0
  7  6  1  0  0  0  0
  8  1  1  0  0  0  0
  9  8  1  0  0  0  0
  9 10  1  0  0  0  0
 11 10  1  0  0  0  0
 11 12  1  0  0  0  0
 12 13  1  0  0  0  0
 13 14  1  0  0  0  0
 14 16  1  0  0  0  0
 16 15  1  0  0  0  0
 17 18  1  0  0  0  0
 18 23  1  0  0  0  0
 19 18  2  0  0  0  0
 19 20  1  0  0  0  0
 20 21  2  0  0  0  0
 21 22  1  0  0  0  0
 21 24  1  0  0  0  0
 22 26  1  0  0  0  0
 23 22  2  0  0  0  0
 24 25  1  0  0  0  0
 27 26  1  0  0  0  0
M  END
>  <MODEL>
4

>  <REMARK>
 VINA RESULT:    -5.981      4.155      5.554
 INTER + INTRA:         -11.033
 INTER:                  -9.404
 INTRA:                  -1.629
 UNBOUND:                -0.857
  Name = CHEMBL80662
  15 active torsions:
  status: ('A' for Active; 'I' for Inactive)
    1  A    between atoms: C_1  and  C_2
    2  A    between atoms: C_2  and  C_3
    3  A    between atoms: C_3  and  C_4
    4  A    between atoms: C_4  and  C_5
    5  A    between atoms: C_5  and  C_6
    6  A    between atoms: C_6  and  C_7
    7  A    between atoms: C_7  and  C_8
    8  A    between atoms: C_8  and  C_9
    9  A    between atoms: C_9  and  N_10
   10  A    between atoms: C_11  and  S_12
   11  A    between atoms: N_13  and  C_14
   12  A    between atoms: C_14  and  C_15
   13  A    between atoms: C_18  and  O_19
   14  A    between atoms: C_20  and  O_21
   15  A    between atoms: O_21  and  C_22
                            x       y       z     vdW  Elec       q    Type
                         _______ _______ _______ _____ _____    ______ ____

>  <TORSDO>
F 13

>  <SCORE>
-5.981

>  <RMSD_LB>
4.155

>  <RMSD_UB>
5.554

$$$$
CHEMBL80662
 OpenBabel10172500073D

 27 27  0  0  1  0  0  0  0  0999 V2000
  145.5440  137.2630  148.8400 N   0  0  0  0  0  0  0  0  0  0  0  0
  144.8480  136.3020  149.3290 C   0  0  1  0  0  3  0  0  0  0  0  0
  144.8520  135.9930  150.6530 N   0  0  0  0  0  0  0  0  0  0  0  0
  146.0960  137.7900  149.4630 H   0  0  0  0  0  0  0  0  0  0  0  0
  144.0710  135.5150  151.0140 H   0  0  0  0  0  0  0  0  0  0  0  0
  143.7700  135.2420  148.4350 S   0  0  0  0  0  0  0  0  0  0  0  0
  142.6100  135.8980  148.1670 H   0  0  0  0  0  0  0  0  0  0  0  0
  145.5770  137.6260  147.4370 C   0  0  0  0  0  2  0  0  0  0  0  0
  146.6280  138.7070  147.1710 C   0  0  0  0  0  2  0  0  0  0  0  0
  146.8360  139.5420  148.4340 C   0  0  0  0  0  2  0  0  0  0  0  0
  145.8530  140.7050  148.5320 C   0  0  0  0  0  2  0  0  0  0  0  0
  145.8290  141.2620  149.9570 C   0  0  0  0  0  2  0  0  0  0  0  0
  146.8960  142.3370  150.1500 C   0  0  0  0  0  2  0  0  0  0  0  0
  147.6810  142.1080  151.4410 C   0  0  0  0  0  2  0  0  0  0  0  0
  147.5180  141.8560  153.9390 C   0  0  0  0  0  1  0  0  0  0  0  0
  146.7720  142.2120  152.6640 C   0  0  0  0  0  2  0  0  0  0  0  0
  145.9180  136.3180  151.5650 C   0  0  0  0  0  2  0  0  0  0  0  0
  145.5340  137.4540  152.4890 C   0  0  0  0  0  0  0  0  0  0  0  0
  144.5400  138.3720  152.1370 C   0  0  0  0  0  3  0  0  0  0  0  0
  144.1590  139.3860  153.0250 C   0  0  0  0  0  3  0  0  0  0  0  0
  144.7800  139.5050  154.2750 C   0  0  0  0  0  0  0  0  0  0  0  0
  145.7930  138.6160  154.6390 C   0  0  0  0  0  0  0  0  0  0  0  0
  146.1560  137.6020  153.7390 C   0  0  0  0  0  3  0  0  0  0  0  0
  144.3600  140.5020  155.1140 O   0  0  0  0  0  0  0  0  0  0  0  0
  144.7230  140.5730  155.9760 H   0  0  0  0  0  0  0  0  0  0  0  0
  146.5150  138.5800  155.8040 O   0  0  0  0  0  0  0  0  0  0  0  0
  147.9300  138.5780  155.7170 C   0  0  0  0  0  1  0  0  0  0  0  0
  1  2  1  0  0  0  0
  1  4  1  0  0  0  0
  2  6  1  1  0  0  0
  2  3  1  0  0  0  0
  3  5  1  0  0  0  0
  3 17  1  0  0  0  0
  7  6  1  0  0  0  0
  8  1  1  0  0  0  0
  9  8  1  0  0  0  0
  9 10  1  0  0  0  0
 10 11  1  0  0  0  0
 11 12  1  0  0  0  0
 12 13  1  0  0  0  0
 13 14  1  0  0  0  0
 14 16  1  0  0  0  0
 16 15  1  0  0  0  0
 17 18  1  0  0  0  0
 18 23  1  0  0  0  0
 19 18  2  0  0  0  0
 19 20  1  0  0  0  0
 20 21  2  0  0  0  0
 21 22  1  0  0  0  0
 21 24  1  0  0  0  0
 22 26  1  0  0  0  0
 23 22  2  0  0  0  0
 24 25  1  0  0  0  0
 27 26  1  0  0  0  0
M  END
>  <MODEL>
5

>  <REMARK>
 VINA RESULT:    -5.824      3.526      4.517
 INTER + INTRA:         -10.767
 INTER:                  -9.197
 INTRA:                  -1.570
 UNBOUND:                -0.857
  Name = CHEMBL80662
  15 active torsions:
  status: ('A' for Active; 'I' for Inactive)
    1  A    between atoms: C_1  and  C_2
    2  A    between atoms: C_2  and  C_3
    3  A    between atoms: C_3  and  C_4
    4  A    between atoms: C_4  and  C_5
    5  A    between atoms: C_5  and  C_6
    6  A    between atoms: C_6  and  C_7
    7  A    between atoms: C_7  and  C_8
    8  A    between atoms: C_8  and  C_9
    9  A    between atoms: C_9  and  N_10
   10  A    between atoms: C_11  and  S_12
   11  A    between atoms: N_13  and  C_14
   12  A    between atoms: C_14  and  C_15
   13  A    between atoms: C_18  and  O_19
   14  A    between atoms: C_20  and  O_21
   15  A    between atoms: O_21  and  C_22
                            x       y       z     vdW  Elec       q    Type
                         _______ _______ _______ _____ _____    ______ ____

>  <TORSDO>
F 13

>  <SCORE>
-5.824

>  <RMSD_LB>
3.526

>  <RMSD_UB>
4.517

$$$$
CHEMBL80662
 OpenBabel10172500073D

 27 27  0  0  1  0  0  0  0  0999 V2000
  144.9690  137.6660  153.9290 N   0  0  0  0  0  0  0  0  0  0  0  0
  143.9100  138.3520  154.1650 C   0  0  1  0  0  3  0  0  0  0  0  0
  142.7230  138.1020  153.5510 N   0  0  0  0  0  0  0  0  0  0  0  0
  144.9020  136.9310  153.2760 H   0  0  0  0  0  0  0  0  0  0  0  0
  141.9010  138.3970  154.0060 H   0  0  0  0  0  0  0  0  0  0  0  0
  143.7680  139.6850  155.2990 S   0  0  0  0  0  0  0  0  0  0  0  0
  144.7970  139.6350  156.1870 H   0  0  0  0  0  0  0  0  0  0  0  0
  146.2570  137.8980  154.5530 C   0  0  0  0  0  2  0  0  0  0  0  0
  147.1580  138.7510  153.6580 C   0  0  0  0  0  2  0  0  0  0  0  0
  148.3200  139.3080  154.4800 C   0  0  0  0  0  2  0  0  0  0  0  0
  148.5820  140.7840  154.1930 C   0  0  0  0  0  2  0  0  0  0  0  0
  147.2600  141.5460  154.0710 C   0  0  0  0  0  2  0  0  0  0  0  0
  147.1570  142.2630  152.7270 C   0  0  0  0  0  2  0  0  0  0  0  0
  145.7140  142.2800  152.2220 C   0  0  0  0  0  2  0  0  0  0  0  0
  146.9600  142.6630  150.0710 C   0  0  0  0  0  1  0  0  0  0  0  0
  145.6610  142.1870  150.6990 C   0  0  0  0  0  2  0  0  0  0  0  0
  142.5830  137.4340  152.2830 C   0  0  0  0  0  2  0  0  0  0  0  0
  141.1490  137.4540  151.7980 C   0  0  0  0  0  0  0  0  0  0  0  0
  140.1030  137.8460  152.6390 C   0  0  0  0  0  3  0  0  0  0  0  0
  138.7890  137.9100  152.1600 C   0  0  0  0  0  3  0  0  0  0  0  0
  138.4990  137.5640  150.8330 C   0  0  0  0  0  0  0  0  0  0  0  0
  139.5230  137.1450  149.9810 C   0  0  0  0  0  0  0  0  0  0  0  0
  140.8340  137.0950  150.4770 C   0  0  0  0  0  3  0  0  0  0  0  0
  137.2010  137.6590  150.4090 O   0  0  0  0  0  0  0  0  0  0  0  0
  136.5070  137.7280  151.0350 H   0  0  0  0  0  0  0  0  0  0  0  0
  139.4330  136.7630  148.6680 O   0  0  0  0  0  0  0  0  0  0  0  0
  139.3990  135.3760  148.3730 C   0  0  0  0  0  1  0  0  0  0  0  0
  1  2  1  0  0  0  0
  1  8  1  0  0  0  0
  2  6  1  1  0  0  0
  3  5  1  0  0  0  0
  3  2  1  0  0  0  0
  4  1  1  0  0  0  0
  6  7  1  0  0  0  0
  9 10  1  0  0  0  0
  9  8  1  0  0  0  0
 11 10  1  0  0  0  0
 12 11  1  0  0  0  0
 13 12  1  0  0  0  0
 14 13  1  0  0  0  0
 15 16  1  0  0  0  0
 16 14  1  0  0  0  0
 17  3  1  0  0  0  0
 18 17  1  0  0  0  0
 18 19  1  0  0  0  0
 20 19  2  0  0  0  0
 21 20  1  0  0  0  0
 22 23  1  0  0  0  0
 22 21  2  0  0  0  0
 23 18  2  0  0  0  0
 24 21  1  0  0  0  0
 24 25  1  0  0  0  0
 26 22  1  0  0  0  0
 27 26  1  0  0  0  0
M  END
>  <MODEL>
6

>  <REMARK>
 VINA RESULT:    -5.820      2.790      4.291
 INTER + INTRA:         -10.759
 INTER:                  -9.951
 INTRA:                  -0.808
 UNBOUND:                -0.857
  Name = CHEMBL80662
  15 active torsions:
  status: ('A' for Active; 'I' for Inactive)
    1  A    between atoms: C_1  and  C_2
    2  A    between atoms: C_2  and  C_3
    3  A    between atoms: C_3  and  C_4
    4  A    between atoms: C_4  and  C_5
    5  A    between atoms: C_5  and  C_6
    6  A    between atoms: C_6  and  C_7
    7  A    between atoms: C_7  and  C_8
    8  A    between atoms: C_8  and  C_9
    9  A    between atoms: C_9  and  N_10
   10  A    between atoms: C_11  and  S_12
   11  A    between atoms: N_13  and  C_14
   12  A    between atoms: C_14  and  C_15
   13  A    between atoms: C_18  and  O_19
   14  A    between atoms: C_20  and  O_21
   15  A    between atoms: O_21  and  C_22
                            x       y       z     vdW  Elec       q    Type
                         _______ _______ _______ _____ _____    ______ ____

>  <TORSDO>
F 13

>  <SCORE>
-5.820

>  <RMSD_LB>
2.790

>  <RMSD_UB>
4.291

$$$$
CHEMBL80662
 OpenBabel10172500073D

 27 27  0  0  1  0  0  0  0  0999 V2000
  145.2590  137.0110  151.6080 N   0  0  0  0  0  0  0  0  0  0  0  0
  144.8810  137.7620  150.6380 C   0  0  1  0  0  3  0  0  0  0  0  0
  143.5830  137.8500  150.2420 N   0  0  0  0  0  0  0  0  0  0  0  0
  144.5690  136.4860  152.0750 H   0  0  0  0  0  0  0  0  0  0  0  0
  143.3050  138.6650  149.7650 H   0  0  0  0  0  0  0  0  0  0  0  0
  145.9100  138.8090  149.6740 S   0  0  0  0  0  0  0  0  0  0  0  0
  145.3230  139.0340  148.4680 H   0  0  0  0  0  0  0  0  0  0  0  0
  146.6300  136.8800  152.0630 C   0  0  0  0  0  2  0  0  0  0  0  0
  146.7240  137.0400  153.5820 C   0  0  0  0  0  2  0  0  0  0  0  0
  145.4070  137.5940  154.1230 C   0  0  0  0  0  2  0  0  0  0  0  0
  145.5990  138.8840  154.9150 C   0  0  0  0  0  2  0  0  0  0  0  0
  146.4300  139.8850  154.1090 C   0  0  0  0  0  2  0  0  0  0  0  0
  145.5700  140.6160  153.0790 C   0  0  0  0  0  2  0  0  0  0  0  0
  146.2020  141.9490  152.6820 C   0  0  0  0  0  2  0  0  0  0  0  0
  148.4430  141.9250  151.5390 C   0  0  0  0  0  1  0  0  0  0  0  0
  147.7170  141.9200  152.8730 C   0  0  0  0  0  2  0  0  0  0  0  0
  142.5880  136.8350  150.4730 C   0  0  0  0  0  2  0  0  0  0  0  0
  141.4820  137.3360  151.3770 C   0  0  0  0  0  0  0  0  0  0  0  0
  141.7500  137.7770  152.6770 C   0  0  0  0  0  3  0  0  0  0  0  0
  140.7240  138.2860  153.4820 C   0  0  0  0  0  3  0  0  0  0  0  0
  139.4080  138.3460  153.0040 C   0  0  0  0  0  0  0  0  0  0  0  0
  139.1110  137.8870  151.7190 C   0  0  0  0  0  0  0  0  0  0  0  0
  140.1540  137.3870  150.9240 C   0  0  0  0  0  3  0  0  0  0  0  0
  138.4440  138.8670  153.8240 O   0  0  0  0  0  0  0  0  0  0  0  0
  137.7140  138.3390  154.0840 H   0  0  0  0  0  0  0  0  0  0  0  0
  137.8950  137.8570  151.0870 O   0  0  0  0  0  0  0  0  0  0  0  0
  137.1860  136.6300  151.0530 C   0  0  0  0  0  1  0  0  0  0  0  0
  1  8  1  0  0  0  0
  1  4  1  0  0  0  0
  2  6  1  1  0  0  0
  2  1  1  0  0  0  0
  3 17  1  0  0  0  0
  3  2  1  0  0  0  0
  5  3  1  0  0  0  0
  7  6  1  0  0  0  0
  8  9  1  0  0  0  0
  9 10  1  0  0  0  0
 10 11  1  0  0  0  0
 12 11  1  0  0  0  0
 13 12  1  0  0  0  0
 14 16  1  0  0  0  0
 14 13  1  0  0  0  0
 15 16  1  0  0  0  0
 17 18  1  0  0  0  0
 18 19  1  0  0  0  0
 19 20  2  0  0  0  0
 21 20  1  0  0  0  0
 21 24  1  0  0  0  0
 22 21  2  0  0  0  0
 23 18  2  0  0  0  0
 23 22  1  0  0  0  0
 24 25  1  0  0  0  0
 26 22  1  0  0  0  0
 27 26  1  0  0  0  0
M  END
>  <MODEL>
7

>  <REMARK>
 VINA RESULT:    -5.816      1.989      3.479
 INTER + INTRA:         -10.753
 INTER:                  -9.520
 INTRA:                  -1.233
 UNBOUND:                -0.857
  Name = CHEMBL80662
  15 active torsions:
  status: ('A' for Active; 'I' for Inactive)
    1  A    between atoms: C_1  and  C_2
    2  A    between atoms: C_2  and  C_3
    3  A    between atoms: C_3  and  C_4
    4  A    between atoms: C_4  and  C_5
    5  A    between atoms: C_5  and  C_6
    6  A    between atoms: C_6  and  C_7
    7  A    between atoms: C_7  and  C_8
    8  A    between atoms: C_8  and  C_9
    9  A    between atoms: C_9  and  N_10
   10  A    between atoms: C_11  and  S_12
   11  A    between atoms: N_13  and  C_14
   12  A    between atoms: C_14  and  C_15
   13  A    between atoms: C_18  and  O_19
   14  A    between atoms: C_20  and  O_21
   15  A    between atoms: O_21  and  C_22
                            x       y       z     vdW  Elec       q    Type
                         _______ _______ _______ _____ _____    ______ ____

>  <TORSDO>
F 13

>  <SCORE>
-5.816

>  <RMSD_LB>
1.989

>  <RMSD_UB>
3.479

$$$$
CHEMBL80662
 OpenBabel10172500073D

 27 27  0  0  1  0  0  0  0  0999 V2000
  145.2030  140.1870  149.6950 N   0  0  0  0  0  0  0  0  0  0  0  0
  144.6710  139.6600  148.6530 C   0  0  1  0  0  3  0  0  0  0  0  0
  143.7120  138.6980  148.7260 N   0  0  0  0  0  0  0  0  0  0  0  0
  144.8920  139.8740  150.5750 H   0  0  0  0  0  0  0  0  0  0  0  0
  143.1090  138.5930  147.9550 H   0  0  0  0  0  0  0  0  0  0  0  0
  145.0320  140.0670  146.9830 S   0  0  0  0  0  0  0  0  0  0  0  0
  145.6270  139.0050  146.3770 H   0  0  0  0  0  0  0  0  0  0  0  0
  146.2310  141.2100  149.6670 C   0  0  0  0  0  2  0  0  0  0  0  0
  145.9870  142.2660  150.7480 C   0  0  0  0  0  2  0  0  0  0  0  0
  147.1060  142.2060  151.7860 C   0  0  0  0  0  2  0  0  0  0  0  0
  146.5750  142.2090  153.2170 C   0  0  0  0  0  2  0  0  0  0  0  0
  147.6550  141.7230  154.1860 C   0  0  0  0  0  2  0  0  0  0  0  0
  148.4220  140.5350  153.6100 C   0  0  0  0  0  2  0  0  0  0  0  0
  148.2130  139.2820  154.4600 C   0  0  0  0  0  2  0  0  0  0  0  0
  147.5160  138.4800  152.1800 C   0  0  0  0  0  1  0  0  0  0  0  0
  147.9150  138.0650  153.5850 C   0  0  0  0  0  2  0  0  0  0  0  0
  143.5170  137.8240  149.8540 C   0  0  0  0  0  2  0  0  0  0  0  0
  142.2440  138.1570  150.6030 C   0  0  0  0  0  0  0  0  0  0  0  0
  141.8340  137.4060  151.7090 C   0  0  0  0  0  3  0  0  0  0  0  0
  140.6830  137.7580  152.4230 C   0  0  0  0  0  3  0  0  0  0  0  0
  139.9140  138.8610  152.0310 C   0  0  0  0  0  0  0  0  0  0  0  0
  140.2880  139.6120  150.9150 C   0  0  0  0  0  0  0  0  0  0  0  0
  141.4490  139.2480  150.2160 C   0  0  0  0  0  3  0  0  0  0  0  0
  138.8060  139.1750  152.7730 O   0  0  0  0  0  0  0  0  0  0  0  0
  138.7960  139.9560  153.2920 H   0  0  0  0  0  0  0  0  0  0  0  0
  139.6630  140.7090  150.3790 O   0  0  0  0  0  0  0  0  0  0  0  0
  138.5640  140.4970  149.5090 C   0  0  0  0  0  1  0  0  0  0  0  0
  1  4  1  0  0  0  0
  2  6  1  1  0  0  0
  2  3  1  0  0  0  0
  2  1  1  0  0  0  0
  3 17  1  0  0  0  0
  5  3  1  0  0  0  0
  7  6  1  0  0  0  0
  8  1  1  0  0  0  0
  8  9  1  0  0  0  0
  9 10  1  0  0  0  0
 10 11  1  0  0  0  0
 11 12  1  0  0  0  0
 13 12  1  0  0  0  0
 13 14  1  0  0  0  0
 15 16  1  0  0  0  0
 16 14  1  0  0  0  0
 17 18  1  0  0  0  0
 18 19  1  0  0  0  0
 19 20  2  0  0  0  0
 21 20  1  0  0  0  0
 21 24  1  0  0  0  0
 22 21  2  0  0  0  0
 23 18  2  0  0  0  0
 23 22  1  0  0  0  0
 24 25  1  0  0  0  0
 26 22  1  0  0  0  0
 27 26  1  0  0  0  0
M  END
>  <MODEL>
8

>  <REMARK>
 VINA RESULT:    -5.708      2.035      3.040
 INTER + INTRA:         -10.569
 INTER:                  -9.414
 INTRA:                  -1.155
 UNBOUND:                -0.857
  Name = CHEMBL80662
  15 active torsions:
  status: ('A' for Active; 'I' for Inactive)
    1  A    between atoms: C_1  and  C_2
    2  A    between atoms: C_2  and  C_3
    3  A    between atoms: C_3  and  C_4
    4  A    between atoms: C_4  and  C_5
    5  A    between atoms: C_5  and  C_6
    6  A    between atoms: C_6  and  C_7
    7  A    between atoms: C_7  and  C_8
    8  A    between atoms: C_8  and  C_9
    9  A    between atoms: C_9  and  N_10
   10  A    between atoms: C_11  and  S_12
   11  A    between atoms: N_13  and  C_14
   12  A    between atoms: C_14  and  C_15
   13  A    between atoms: C_18  and  O_19
   14  A    between atoms: C_20  and  O_21
   15  A    between atoms: O_21  and  C_22
                            x       y       z     vdW  Elec       q    Type
                         _______ _______ _______ _____ _____    ______ ____

>  <TORSDO>
F 13

>  <SCORE>
-5.708

>  <RMSD_LB>
2.035

>  <RMSD_UB>
3.040

$$$$
CHEMBL80662
 OpenBabel10172500073D

 27 27  0  0  1  0  0  0  0  0999 V2000
  144.4110  138.0710  151.7750 N   0  0  0  0  0  0  0  0  0  0  0  0
  143.6760  139.1170  151.6610 C   0  0  1  0  0  3  0  0  0  0  0  0
  143.0050  139.6600  152.7110 N   0  0  0  0  0  0  0  0  0  0  0  0
  144.4830  137.6580  152.6670 H   0  0  0  0  0  0  0  0  0  0  0  0
  142.7650  140.6130  152.6570 H   0  0  0  0  0  0  0  0  0  0  0  0
  143.4120  140.0440  150.1930 S   0  0  0  0  0  0  0  0  0  0  0  0
  144.3600  141.0140  150.0940 H   0  0  0  0  0  0  0  0  0  0  0  0
  145.1410  137.4530  150.6850 C   0  0  0  0  0  2  0  0  0  0  0  0
  146.2980  136.6000  151.2100 C   0  0  0  0  0  2  0  0  0  0  0  0
  147.4570  137.5050  151.6250 C   0  0  0  0  0  2  0  0  0  0  0  0
  147.5720  137.6460  153.1400 C   0  0  0  0  0  2  0  0  0  0  0  0
  147.4990  139.1200  153.5440 C   0  0  0  0  0  2  0  0  0  0  0  0
  148.3610  139.9890  152.6300 C   0  0  0  0  0  2  0  0  0  0  0  0
  148.2040  141.4700  152.9700 C   0  0  0  0  0  2  0  0  0  0  0  0
  145.9430  142.2480  152.1870 C   0  0  0  0  0  1  0  0  0  0  0  0
  147.4300  142.2070  151.8780 C   0  0  0  0  0  2  0  0  0  0  0  0
  142.6220  138.9380  153.8970 C   0  0  0  0  0  2  0  0  0  0  0  0
  141.1490  138.5930  153.8880 C   0  0  0  0  0  0  0  0  0  0  0  0
  140.5180  138.1320  152.7280 C   0  0  0  0  0  3  0  0  0  0  0  0
  139.1670  137.7670  152.7480 C   0  0  0  0  0  3  0  0  0  0  0  0
  138.4200  137.8740  153.9290 C   0  0  0  0  0  0  0  0  0  0  0  0
  139.0200  138.3560  155.0930 C   0  0  0  0  0  0  0  0  0  0  0  0
  140.3770  138.7100  155.0550 C   0  0  0  0  0  3  0  0  0  0  0  0
  137.1060  137.4880  153.9010 O   0  0  0  0  0  0  0  0  0  0  0  0
  136.8760  136.5950  154.0710 H   0  0  0  0  0  0  0  0  0  0  0  0
  138.4550  138.5370  156.3290 O   0  0  0  0  0  0  0  0  0  0  0  0
  138.5590  137.4860  157.2750 C   0  0  0  0  0  1  0  0  0  0  0  0
  1  4  1  0  0  0  0
  2  6  1  1  0  0  0
  2  1  1  0  0  0  0
  2  3  1  0  0  0  0
  3 17  1  0  0  0  0
  5  3  1  0  0  0  0
  7  6  1  0  0  0  0
  8  9  1  0  0  0  0
  8  1  1  0  0  0  0
  9 10  1  0  0  0  0
 10 11  1  0  0  0  0
 11 12  1  0  0  0  0
 13 14  1  0  0  0  0
 13 12  1  0  0  0  0
 16 15  1  0  0  0  0
 16 14  1  0  0  0  0
 18 17  1  0  0  0  0
 18 23  1  0  0  0  0
 19 20  1  0  0  0  0
 19 18  2  0  0  0  0
 20 21  2  0  0  0  0
 21 22  1  0  0  0  0
 22 26  1  0  0  0  0
 23 22  2  0  0  0  0
 24 21  1  0  0  0  0
 24 25  1  0  0  0  0
 26 27  1  0  0  0  0
M  END
>  <MODEL>
9

>  <REMARK>
 VINA RESULT:    -5.626      1.909      2.848
 INTER + INTRA:         -10.429
 INTER:                  -9.573
 INTRA:                  -0.857
 UNBOUND:                -0.857
  Name = CHEMBL80662
  15 active torsions:
  status: ('A' for Active; 'I' for Inactive)
    1  A    between atoms: C_1  and  C_2
    2  A    between atoms: C_2  and  C_3
    3  A    between atoms: C_3  and  C_4
    4  A    between atoms: C_4  and  C_5
    5  A    between atoms: C_5  and  C_6
    6  A    between atoms: C_6  and  C_7
    7  A    between atoms: C_7  and  C_8
    8  A    between atoms: C_8  and  C_9
    9  A    between atoms: C_9  and  N_10
   10  A    between atoms: C_11  and  S_12
   11  A    between atoms: N_13  and  C_14
   12  A    between atoms: C_14  and  C_15
   13  A    between atoms: C_18  and  O_19
   14  A    between atoms: C_20  and  O_21
   15  A    between atoms: O_21  and  C_22
                            x       y       z     vdW  Elec       q    Type
                         _______ _______ _______ _____ _____    ______ ____

>  <TORSDO>
F 13

>  <SCORE>
-5.626

>  <RMSD_LB>
1.909

>  <RMSD_UB>
2.848

$$$$
