CHEMBL2049036
 OpenBabel10172500233D

 23 23  0  0  0  0  0  0  0  0999 V2000
  133.9490  135.3200  153.5870 C   0  0  0  0  0  2  0  0  0  0  0  0
  133.4900  134.4040  152.5620 N   0  0  0  0  0  0  0  0  0  0  0  0
  134.3740  134.0750  151.5560 C   0  0  0  0  0  0  0  0  0  0  0  0
  135.5110  134.5490  151.4850 O   0  0  0  0  0  0  0  0  0  0  0  0
  132.5800  134.0300  152.5830 H   0  0  0  0  0  0  0  0  0  0  0  0
  133.8330  133.1120  150.5280 C   0  0  0  0  0  2  0  0  0  0  0  0
  132.5770  133.6810  149.8620 C   0  0  0  0  0  2  0  0  0  0  0  0
  132.8480  134.0410  148.4020 C   0  0  0  0  0  2  0  0  0  0  0  0
  133.9130  133.1330  147.7760 C   0  0  0  0  0  2  0  0  0  0  0  0
  134.6710  133.7930  146.6260 C   0  0  0  0  0  0  0  0  0  0  0  0
  134.4850  133.2610  145.2220 C   0  0  0  0  0  1  0  0  0  0  0  0
  135.4190  134.7380  146.8230 O   0  0  0  0  0  0  0  0  0  0  0  0
  134.4660  134.6810  154.8720 C   0  0  0  0  0  2  0  0  0  0  0  0
  137.7840  136.8670  156.6510 C   0  0  0  0  0  0  0  0  0  0  0  0
  137.5950  136.8410  155.2650 C   0  0  0  0  0  3  0  0  0  0  0  0
  136.5320  136.1450  154.6910 C   0  0  0  0  0  3  0  0  0  0  0  0
  135.6240  135.4440  155.4850 C   0  0  0  0  0  0  0  0  0  0  0  0
  135.8090  135.4680  156.8760 C   0  0  0  0  0  3  0  0  0  0  0  0
  136.8470  136.2130  157.4710 C   0  0  0  0  0  0  0  0  0  0  0  0
  140.0170  137.6190  156.3670 C   0  0  0  0  0  1  0  0  0  0  0  0
  138.8820  137.4640  157.2170 O   0  0  0  0  0  0  0  0  0  0  0  0
  136.8380  136.1580  158.8430 O   0  0  0  0  0  0  0  0  0  0  0  0
  136.4790  134.9100  159.4270 C   0  0  0  0  0  1  0  0  0  0  0  0
  1 13  1  0  0  0  0
  2  5  1  0  0  0  0
  2  1  1  0  0  0  0
  3  2  1  0  0  0  0
  4  3  2  0  0  0  0
  6  3  1  0  0  0  0
  7  6  1  0  0  0  0
  8  7  1  0  0  0  0
  9  8  1  0  0  0  0
 10 12  2  0  0  0  0
 10  9  1  0  0  0  0
 11 10  1  0  0  0  0
 13 17  1  0  0  0  0
 14 21  1  0  0  0  0
 14 19  1  0  0  0  0
 15 14  2  0  0  0  0
 16 15  1  0  0  0  0
 16 17  2  0  0  0  0
 17 18  1  0  0  0  0
 18 19  2  0  0  0  0
 19 22  1  0  0  0  0
 20 21  1  0  0  0  0
 22 23  1  0  0  0  0
M  END
>  <MODEL>
1

>  <REMARK>
 VINA RESULT:    -6.001      0.000      0.000
 INTER + INTRA:         -10.571
 INTER:                  -9.959
 INTRA:                  -0.612
 UNBOUND:                -1.061
  Name = CHEMBL2049036
  13 active torsions:
  status: ('A' for Active; 'I' for Inactive)
    1  A    between atoms: C_1  and  O_2
    2  A    between atoms: O_2  and  C_3
    3  A    between atoms: C_6  and  C_7
    4  A    between atoms: C_7  and  C_8
    5  A    between atoms: C_8  and  N_9
    6  A    between atoms: C_10  and  C_12
    7  A    between atoms: C_12  and  C_13
    8  A    between atoms: C_13  and  C_14
    9  A    between atoms: C_14  and  C_15
   10  A    between atoms: C_15  and  C_16
   11  A    between atoms: C_16  and  C_17
   12  A    between atoms: C_20  and  O_21
   13  A    between atoms: O_21  and  C_22
                            x       y       z     vdW  Elec       q    Type
                         _______ _______ _______ _____ _____    ______ ____

>  <TORSDO>
F 10

>  <SCORE>
-6.001

>  <RMSD_LB>
0.000

>  <RMSD_UB>
0.000

$$$$
CHEMBL2049036
 OpenBabel10172500233D

 23 23  0  0  0  0  0  0  0  0999 V2000
  134.1370  134.8660  153.3100 C   0  0  0  0  0  2  0  0  0  0  0  0
  134.4730  134.0290  152.1760 N   0  0  0  0  0  0  0  0  0  0  0  0
  133.5330  133.9020  151.1740 C   0  0  0  0  0  0  0  0  0  0  0  0
  132.4260  134.4450  151.2240 O   0  0  0  0  0  0  0  0  0  0  0  0
  135.3400  133.5660  152.1230 H   0  0  0  0  0  0  0  0  0  0  0  0
  133.9510  133.0220  150.0220 C   0  0  0  0  0  2  0  0  0  0  0  0
  133.8440  133.7800  148.6960 C   0  0  0  0  0  2  0  0  0  0  0  0
  134.7700  134.9940  148.6850 C   0  0  0  0  0  2  0  0  0  0  0  0
  134.3490  136.0280  147.6340 C   0  0  0  0  0  2  0  0  0  0  0  0
  132.9490  136.5930  147.8670 C   0  0  0  0  0  0  0  0  0  0  0  0
  132.5900  137.1270  149.2360 C   0  0  0  0  0  1  0  0  0  0  0  0
  132.1220  136.6210  146.9690 O   0  0  0  0  0  0  0  0  0  0  0  0
  135.0780  134.7770  154.5070 C   0  0  0  0  0  2  0  0  0  0  0  0
  137.8050  138.1610  154.7830 C   0  0  0  0  0  0  0  0  0  0  0  0
  137.6780  137.4290  153.5980 C   0  0  0  0  0  3  0  0  0  0  0  0
  136.8030  136.3470  153.5030 C   0  0  0  0  0  3  0  0  0  0  0  0
  136.0300  135.9550  154.5970 C   0  0  0  0  0  0  0  0  0  0  0  0
  136.1540  136.6860  155.7880 C   0  0  0  0  0  3  0  0  0  0  0  0
  136.9930  137.8150  155.8780 C   0  0  0  0  0  0  0  0  0  0  0  0
  140.0480  138.8590  154.4510 C   0  0  0  0  0  1  0  0  0  0  0  0
  138.7340  139.1610  154.9170 O   0  0  0  0  0  0  0  0  0  0  0  0
  136.9430  138.4310  157.1040 O   0  0  0  0  0  0  0  0  0  0  0  0
  137.2230  137.6170  158.2380 C   0  0  0  0  0  1  0  0  0  0  0  0
  1 13  1  0  0  0  0
  2  1  1  0  0  0  0
  3  4  2  0  0  0  0
  3  2  1  0  0  0  0
  5  2  1  0  0  0  0
  6  3  1  0  0  0  0
  7  6  1  0  0  0  0
  8  7  1  0  0  0  0
  9 10  1  0  0  0  0
  9  8  1  0  0  0  0
 10 11  1  0  0  0  0
 12 10  2  0  0  0  0
 13 17  1  0  0  0  0
 14 21  1  0  0  0  0
 14 19  1  0  0  0  0
 15 14  2  0  0  0  0
 16 15  1  0  0  0  0
 16 17  2  0  0  0  0
 17 18  1  0  0  0  0
 18 19  2  0  0  0  0
 19 22  1  0  0  0  0
 20 21  1  0  0  0  0
 22 23  1  0  0  0  0
M  END
>  <MODEL>
2

>  <REMARK>
 VINA RESULT:    -5.976      2.000      2.526
 INTER + INTRA:         -10.531
 INTER:                  -9.852
 INTRA:                  -0.680
 UNBOUND:                -1.061
  Name = CHEMBL2049036
  13 active torsions:
  status: ('A' for Active; 'I' for Inactive)
    1  A    between atoms: C_1  and  O_2
    2  A    between atoms: O_2  and  C_3
    3  A    between atoms: C_6  and  C_7
    4  A    between atoms: C_7  and  C_8
    5  A    between atoms: C_8  and  N_9
    6  A    between atoms: C_10  and  C_12
    7  A    between atoms: C_12  and  C_13
    8  A    between atoms: C_13  and  C_14
    9  A    between atoms: C_14  and  C_15
   10  A    between atoms: C_15  and  C_16
   11  A    between atoms: C_16  and  C_17
   12  A    between atoms: C_20  and  O_21
   13  A    between atoms: O_21  and  C_22
                            x       y       z     vdW  Elec       q    Type
                         _______ _______ _______ _____ _____    ______ ____

>  <TORSDO>
F 10

>  <SCORE>
-5.976

>  <RMSD_LB>
2.000

>  <RMSD_UB>
2.526

$$$$
CHEMBL2049036
 OpenBabel10172500233D

 23 23  0  0  0  0  0  0  0  0999 V2000
  139.1300  138.5140  152.5740 C   0  0  0  0  0  2  0  0  0  0  0  0
  138.1340  138.0020  153.4930 N   0  0  0  0  0  0  0  0  0  0  0  0
  138.2460  138.3570  154.8210 C   0  0  0  0  0  0  0  0  0  0  0  0
  139.1660  139.0600  155.2490 O   0  0  0  0  0  0  0  0  0  0  0  0
  137.4040  137.4200  153.1800 H   0  0  0  0  0  0  0  0  0  0  0  0
  137.1720  137.7950  155.7190 C   0  0  0  0  0  2  0  0  0  0  0  0
  137.0340  136.2830  155.5170 C   0  0  0  0  0  2  0  0  0  0  0  0
  135.6380  135.9250  155.0130 C   0  0  0  0  0  2  0  0  0  0  0  0
  135.6770  134.8210  153.9500 C   0  0  0  0  0  2  0  0  0  0  0  0
  135.8150  135.3550  152.5260 C   0  0  0  0  0  0  0  0  0  0  0  0
  135.9430  134.3730  151.3820 C   0  0  0  0  0  1  0  0  0  0  0  0
  135.8210  136.5550  152.3000 O   0  0  0  0  0  0  0  0  0  0  0  0
  139.7130  137.5040  151.5900 C   0  0  0  0  0  2  0  0  0  0  0  0
  144.0530  137.2490  151.8230 C   0  0  0  0  0  0  0  0  0  0  0  0
  143.3740  136.9510  150.6380 C   0  0  0  0  0  3  0  0  0  0  0  0
  141.9840  137.0350  150.5570 C   0  0  0  0  0  3  0  0  0  0  0  0
  141.2250  137.4130  151.6650 C   0  0  0  0  0  0  0  0  0  0  0  0
  141.9030  137.7130  152.8570 C   0  0  0  0  0  3  0  0  0  0  0  0
  143.3090  137.6850  152.9340 C   0  0  0  0  0  0  0  0  0  0  0  0
  145.9560  135.9560  151.2420 C   0  0  0  0  0  1  0  0  0  0  0  0
  145.4090  137.0720  151.9410 O   0  0  0  0  0  0  0  0  0  0  0  0
  143.7930  138.0590  154.1640 O   0  0  0  0  0  0  0  0  0  0  0  0
  144.1750  139.4230  154.3100 C   0  0  0  0  0  1  0  0  0  0  0  0
  1  2  1  0  0  0  0
  2  3  1  0  0  0  0
  3  4  2  0  0  0  0
  3  6  1  0  0  0  0
  5  2  1  0  0  0  0
  7  6  1  0  0  0  0
  8  7  1  0  0  0  0
  9  8  1  0  0  0  0
 10  9  1  0  0  0  0
 11 10  1  0  0  0  0
 12 10  2  0  0  0  0
 13 17  1  0  0  0  0
 13  1  1  0  0  0  0
 14 21  1  0  0  0  0
 14 19  1  0  0  0  0
 15 14  2  0  0  0  0
 16 15  1  0  0  0  0
 16 17  2  0  0  0  0
 17 18  1  0  0  0  0
 18 19  2  0  0  0  0
 19 22  1  0  0  0  0
 20 21  1  0  0  0  0
 22 23  1  0  0  0  0
M  END
>  <MODEL>
3

>  <REMARK>
 VINA RESULT:    -5.951      4.610      7.370
 INTER + INTRA:         -10.491
 INTER:                  -9.420
 INTRA:                  -1.071
 UNBOUND:                -1.061
  Name = CHEMBL2049036
  13 active torsions:
  status: ('A' for Active; 'I' for Inactive)
    1  A    between atoms: C_1  and  O_2
    2  A    between atoms: O_2  and  C_3
    3  A    between atoms: C_6  and  C_7
    4  A    between atoms: C_7  and  C_8
    5  A    between atoms: C_8  and  N_9
    6  A    between atoms: C_10  and  C_12
    7  A    between atoms: C_12  and  C_13
    8  A    between atoms: C_13  and  C_14
    9  A    between atoms: C_14  and  C_15
   10  A    between atoms: C_15  and  C_16
   11  A    between atoms: C_16  and  C_17
   12  A    between atoms: C_20  and  O_21
   13  A    between atoms: O_21  and  C_22
                            x       y       z     vdW  Elec       q    Type
                         _______ _______ _______ _____ _____    ______ ____

>  <TORSDO>
F 10

>  <SCORE>
-5.951

>  <RMSD_LB>
4.610

>  <RMSD_UB>
7.370

$$$$
CHEMBL2049036
 OpenBabel10172500233D

 23 23  0  0  0  0  0  0  0  0999 V2000
  144.6120  138.0560  150.9710 C   0  0  0  0  0  2  0  0  0  0  0  0
  145.3450  138.9060  151.8870 N   0  0  0  0  0  0  0  0  0  0  0  0
  146.6830  138.6340  152.0800 C   0  0  0  0  0  0  0  0  0  0  0  0
  147.2590  137.6910  151.5290 O   0  0  0  0  0  0  0  0  0  0  0  0
  144.9030  139.6500  152.3560 H   0  0  0  0  0  0  0  0  0  0  0  0
  147.3860  139.5610  153.0400 C   0  0  0  0  0  2  0  0  0  0  0  0
  146.4040  140.5830  153.6210 C   0  0  0  0  0  2  0  0  0  0  0  0
  146.7570  141.9980  153.1680 C   0  0  0  0  0  2  0  0  0  0  0  0
  145.6780  142.5950  152.2580 C   0  0  0  0  0  2  0  0  0  0  0  0
  145.8270  142.1860  150.7930 C   0  0  0  0  0  0  0  0  0  0  0  0
  147.0320  142.6680  150.0150 C   0  0  0  0  0  1  0  0  0  0  0  0
  144.9950  141.4790  150.2480 O   0  0  0  0  0  0  0  0  0  0  0  0
  143.7030  137.0110  151.6110 C   0  0  0  0  0  2  0  0  0  0  0  0
  140.5900  138.7750  154.0930 C   0  0  0  0  0  0  0  0  0  0  0  0
  141.8070  138.3620  154.6450 C   0  0  0  0  0  3  0  0  0  0  0  0
  142.8090  137.8000  153.8530 C   0  0  0  0  0  3  0  0  0  0  0  0
  142.6220  137.6250  152.4810 C   0  0  0  0  0  0  0  0  0  0  0  0
  141.4030  138.0390  151.9230 C   0  0  0  0  0  3  0  0  0  0  0  0
  140.4060  138.6580  152.7040 C   0  0  0  0  0  0  0  0  0  0  0  0
  138.6710  138.2440  155.3830 C   0  0  0  0  0  1  0  0  0  0  0  0
  139.5630  139.2350  154.8780 O   0  0  0  0  0  0  0  0  0  0  0  0
  139.3070  139.0410  151.9750 O   0  0  0  0  0  0  0  0  0  0  0  0
  139.5130  139.2760  150.5870 C   0  0  0  0  0  1  0  0  0  0  0  0
  1 13  1  0  0  0  0
  1  2  1  0  0  0  0
  2  3  1  0  0  0  0
  2  5  1  0  0  0  0
  3  6  1  0  0  0  0
  4  3  2  0  0  0  0
  6  7  1  0  0  0  0
  8  7  1  0  0  0  0
  9  8  1  0  0  0  0
 10  9  1  0  0  0  0
 11 10  1  0  0  0  0
 12 10  2  0  0  0  0
 13 17  1  0  0  0  0
 14 15  1  0  0  0  0
 14 21  1  0  0  0  0
 16 15  2  0  0  0  0
 17 16  1  0  0  0  0
 18 17  2  0  0  0  0
 18 19  1  0  0  0  0
 19 14  2  0  0  0  0
 21 20  1  0  0  0  0
 22 19  1  0  0  0  0
 23 22  1  0  0  0  0
M  END
>  <MODEL>
4

>  <REMARK>
 VINA RESULT:    -5.862      7.237     11.244
 INTER + INTRA:         -10.350
 INTER:                  -9.090
 INTRA:                  -1.260
 UNBOUND:                -1.061
  Name = CHEMBL2049036
  13 active torsions:
  status: ('A' for Active; 'I' for Inactive)
    1  A    between atoms: C_1  and  O_2
    2  A    between atoms: O_2  and  C_3
    3  A    between atoms: C_6  and  C_7
    4  A    between atoms: C_7  and  C_8
    5  A    between atoms: C_8  and  N_9
    6  A    between atoms: C_10  and  C_12
    7  A    between atoms: C_12  and  C_13
    8  A    between atoms: C_13  and  C_14
    9  A    between atoms: C_14  and  C_15
   10  A    between atoms: C_15  and  C_16
   11  A    between atoms: C_16  and  C_17
   12  A    between atoms: C_20  and  O_21
   13  A    between atoms: O_21  and  C_22
                            x       y       z     vdW  Elec       q    Type
                         _______ _______ _______ _____ _____    ______ ____

>  <TORSDO>
F 10

>  <SCORE>
-5.862

>  <RMSD_LB>
7.237

>  <RMSD_UB>
11.244

$$$$
CHEMBL2049036
 OpenBabel10172500233D

 23 23  0  0  0  0  0  0  0  0999 V2000
  144.7880  138.0200  149.8610 C   0  0  0  0  0  2  0  0  0  0  0  0
  145.4700  139.2740  150.1090 N   0  0  0  0  0  0  0  0  0  0  0  0
  144.7010  140.4170  150.1820 C   0  0  0  0  0  0  0  0  0  0  0  0
  143.4770  140.4090  150.0190 O   0  0  0  0  0  0  0  0  0  0  0  0
  146.4470  139.3100  150.2190 H   0  0  0  0  0  0  0  0  0  0  0  0
  145.4740  141.6840  150.4490 C   0  0  0  0  0  2  0  0  0  0  0  0
  146.9660  141.4760  150.1730 C   0  0  0  0  0  2  0  0  0  0  0  0
  147.8190  142.2770  151.1540 C   0  0  0  0  0  2  0  0  0  0  0  0
  148.6490  141.3690  152.0680 C   0  0  0  0  0  2  0  0  0  0  0  0
  148.2680  141.4820  153.5430 C   0  0  0  0  0  0  0  0  0  0  0  0
  146.8850  141.9760  153.9090 C   0  0  0  0  0  1  0  0  0  0  0  0
  149.0570  141.1800  154.4240 O   0  0  0  0  0  0  0  0  0  0  0  0
  144.5830  137.1200  151.0760 C   0  0  0  0  0  2  0  0  0  0  0  0
  140.9010  137.9890  153.2320 C   0  0  0  0  0  0  0  0  0  0  0  0
  140.8730  137.4310  151.9500 C   0  0  0  0  0  3  0  0  0  0  0  0
  142.0500  137.1470  151.2570 C   0  0  0  0  0  3  0  0  0  0  0  0
  143.2970  137.4210  151.8220 C   0  0  0  0  0  0  0  0  0  0  0  0
  143.3290  137.9820  153.1080 C   0  0  0  0  0  3  0  0  0  0  0  0
  142.1480  138.2210  153.8390 C   0  0  0  0  0  0  0  0  0  0  0  0
  138.5330  138.1360  153.1710 C   0  0  0  0  0  1  0  0  0  0  0  0
  139.7510  138.3640  153.8790 O   0  0  0  0  0  0  0  0  0  0  0  0
  142.3800  138.7230  155.0960 O   0  0  0  0  0  0  0  0  0  0  0  0
  143.4510  139.6520  155.2230 C   0  0  0  0  0  1  0  0  0  0  0  0
  1  2  1  0  0  0  0
  1 13  1  0  0  0  0
  2  3  1  0  0  0  0
  2  5  1  0  0  0  0
  3  6  1  0  0  0  0
  4  3  2  0  0  0  0
  7  6  1  0  0  0  0
  7  8  1  0  0  0  0
  8  9  1  0  0  0  0
  9 10  1  0  0  0  0
 10 11  1  0  0  0  0
 10 12  2  0  0  0  0
 13 17  1  0  0  0  0
 14 19  1  0  0  0  0
 14 21  1  0  0  0  0
 15 14  2  0  0  0  0
 16 17  2  0  0  0  0
 16 15  1  0  0  0  0
 17 18  1  0  0  0  0
 18 19  2  0  0  0  0
 19 22  1  0  0  0  0
 20 21  1  0  0  0  0
 22 23  1  0  0  0  0
M  END
>  <MODEL>
5

>  <REMARK>
 VINA RESULT:    -5.804      7.706     11.866
 INTER + INTRA:         -10.257
 INTER:                  -9.228
 INTRA:                  -1.029
 UNBOUND:                -1.061
  Name = CHEMBL2049036
  13 active torsions:
  status: ('A' for Active; 'I' for Inactive)
    1  A    between atoms: C_1  and  O_2
    2  A    between atoms: O_2  and  C_3
    3  A    between atoms: C_6  and  C_7
    4  A    between atoms: C_7  and  C_8
    5  A    between atoms: C_8  and  N_9
    6  A    between atoms: C_10  and  C_12
    7  A    between atoms: C_12  and  C_13
    8  A    between atoms: C_13  and  C_14
    9  A    between atoms: C_14  and  C_15
   10  A    between atoms: C_15  and  C_16
   11  A    between atoms: C_16  and  C_17
   12  A    between atoms: C_20  and  O_21
   13  A    between atoms: O_21  and  C_22
                            x       y       z     vdW  Elec       q    Type
                         _______ _______ _______ _____ _____    ______ ____

>  <TORSDO>
F 10

>  <SCORE>
-5.804

>  <RMSD_LB>
7.706

>  <RMSD_UB>
11.866

$$$$
CHEMBL2049036
 OpenBabel10172500233D

 23 23  0  0  0  0  0  0  0  0999 V2000
  144.4730  137.5430  151.8170 C   0  0  0  0  0  2  0  0  0  0  0  0
  145.0300  138.8690  151.6410 N   0  0  0  0  0  0  0  0  0  0  0  0
  146.1370  138.9950  150.8290 C   0  0  0  0  0  0  0  0  0  0  0  0
  146.6760  138.0300  150.2790 O   0  0  0  0  0  0  0  0  0  0  0  0
  144.6330  139.6520  152.0870 H   0  0  0  0  0  0  0  0  0  0  0  0
  146.6600  140.4030  150.6850 C   0  0  0  0  0  2  0  0  0  0  0  0
  145.7370  141.3980  151.3950 C   0  0  0  0  0  2  0  0  0  0  0  0
  146.5420  142.3790  152.2440 C   0  0  0  0  0  2  0  0  0  0  0  0
  146.5490  141.9850  153.7250 C   0  0  0  0  0  2  0  0  0  0  0  0
  147.8710  141.3720  154.1830 C   0  0  0  0  0  0  0  0  0  0  0  0
  148.0160  139.8660  154.2040 C   0  0  0  0  0  1  0  0  0  0  0  0
  148.8080  142.0770  154.5270 O   0  0  0  0  0  0  0  0  0  0  0  0
  143.4250  137.4000  152.9160 C   0  0  0  0  0  2  0  0  0  0  0  0
  139.3490  137.8720  151.4610 C   0  0  0  0  0  0  0  0  0  0  0  0
  140.3370  137.2830  150.6650 C   0  0  0  0  0  3  0  0  0  0  0  0
  141.6430  137.1260  151.1280 C   0  0  0  0  0  3  0  0  0  0  0  0
  142.0070  137.5620  152.4030 C   0  0  0  0  0  0  0  0  0  0  0  0
  141.0180  138.1530  153.2050 C   0  0  0  0  0  3  0  0  0  0  0  0
  139.6830  138.2660  152.7680 C   0  0  0  0  0  0  0  0  0  0  0  0
  137.2100  136.9990  150.9150 C   0  0  0  0  0  1  0  0  0  0  0  0
  138.0890  138.1210  150.9780 O   0  0  0  0  0  0  0  0  0  0  0  0
  138.8510  138.8230  153.7080 O   0  0  0  0  0  0  0  0  0  0  0  0
  138.1180  137.9170  154.5250 C   0  0  0  0  0  1  0  0  0  0  0  0
  1 13  1  0  0  0  0
  2  1  1  0  0  0  0
  2  5  1  0  0  0  0
  3  2  1  0  0  0  0
  4  3  2  0  0  0  0
  6  3  1  0  0  0  0
  6  7  1  0  0  0  0
  7  8  1  0  0  0  0
  8  9  1  0  0  0  0
  9 10  1  0  0  0  0
 10 11  1  0  0  0  0
 10 12  2  0  0  0  0
 14 19  1  0  0  0  0
 15 16  1  0  0  0  0
 15 14  2  0  0  0  0
 16 17  2  0  0  0  0
 17 13  1  0  0  0  0
 17 18  1  0  0  0  0
 19 18  2  0  0  0  0
 19 22  1  0  0  0  0
 20 21  1  0  0  0  0
 21 14  1  0  0  0  0
 22 23  1  0  0  0  0
M  END
>  <MODEL>
6

>  <REMARK>
 VINA RESULT:    -5.745      7.255     11.559
 INTER + INTRA:         -10.165
 INTER:                  -9.293
 INTRA:                  -0.872
 UNBOUND:                -1.061
  Name = CHEMBL2049036
  13 active torsions:
  status: ('A' for Active; 'I' for Inactive)
    1  A    between atoms: C_1  and  O_2
    2  A    between atoms: O_2  and  C_3
    3  A    between atoms: C_6  and  C_7
    4  A    between atoms: C_7  and  C_8
    5  A    between atoms: C_8  and  N_9
    6  A    between atoms: C_10  and  C_12
    7  A    between atoms: C_12  and  C_13
    8  A    between atoms: C_13  and  C_14
    9  A    between atoms: C_14  and  C_15
   10  A    between atoms: C_15  and  C_16
   11  A    between atoms: C_16  and  C_17
   12  A    between atoms: C_20  and  O_21
   13  A    between atoms: O_21  and  C_22
                            x       y       z     vdW  Elec       q    Type
                         _______ _______ _______ _____ _____    ______ ____

>  <TORSDO>
F 10

>  <SCORE>
-5.745

>  <RMSD_LB>
7.255

>  <RMSD_UB>
11.559

$$$$
CHEMBL2049036
 OpenBabel10172500233D

 23 23  0  0  0  0  0  0  0  0999 V2000
  139.3220  138.7240  153.3990 C   0  0  0  0  0  2  0  0  0  0  0  0
  138.4340  138.1760  154.4040 N   0  0  0  0  0  0  0  0  0  0  0  0
  138.9350  138.0100  155.6780 C   0  0  0  0  0  0  0  0  0  0  0  0
  140.1020  138.2810  155.9770 O   0  0  0  0  0  0  0  0  0  0  0  0
  137.5060  137.9300  154.1850 H   0  0  0  0  0  0  0  0  0  0  0  0
  137.9550  137.4420  156.6750 C   0  0  0  0  0  2  0  0  0  0  0  0
  137.3970  136.1040  156.1830 C   0  0  0  0  0  2  0  0  0  0  0  0
  135.8940  136.2010  155.9280 C   0  0  0  0  0  2  0  0  0  0  0  0
  135.2100  134.8310  156.0010 C   0  0  0  0  0  2  0  0  0  0  0  0
  134.4230  134.6140  157.2920 C   0  0  0  0  0  0  0  0  0  0  0  0
  135.0250  135.0650  158.6040 C   0  0  0  0  0  1  0  0  0  0  0  0
  133.3210  134.0890  157.2780 O   0  0  0  0  0  0  0  0  0  0  0  0
  139.6620  137.7990  152.2340 C   0  0  0  0  0  2  0  0  0  0  0  0
  143.9530  137.2980  151.6920 C   0  0  0  0  0  0  0  0  0  0  0  0
  143.0600  137.0700  150.6400 C   0  0  0  0  0  3  0  0  0  0  0  0
  141.6850  137.2330  150.8080 C   0  0  0  0  0  3  0  0  0  0  0  0
  141.1560  137.6220  152.0390 C   0  0  0  0  0  0  0  0  0  0  0  0
  142.0490  137.8520  153.0970 C   0  0  0  0  0  3  0  0  0  0  0  0
  143.4430  137.7440  152.9240 C   0  0  0  0  0  0  0  0  0  0  0  0
  145.6450  135.9230  150.7550 C   0  0  0  0  0  1  0  0  0  0  0  0
  145.2960  137.0430  151.5660 O   0  0  0  0  0  0  0  0  0  0  0  0
  144.1560  138.0570  154.0550 O   0  0  0  0  0  0  0  0  0  0  0  0
  144.3810  139.4410  154.3030 C   0  0  0  0  0  1  0  0  0  0  0  0
  1  2  1  0  0  0  0
  2  3  1  0  0  0  0
  3  4  2  0  0  0  0
  3  6  1  0  0  0  0
  5  2  1  0  0  0  0
  7  6  1  0  0  0  0
  8  9  1  0  0  0  0
  8  7  1  0  0  0  0
  9 10  1  0  0  0  0
 10 11  1  0  0  0  0
 12 10  2  0  0  0  0
 13  1  1  0  0  0  0
 14 19  1  0  0  0  0
 15 16  1  0  0  0  0
 15 14  2  0  0  0  0
 16 17  2  0  0  0  0
 17 13  1  0  0  0  0
 17 18  1  0  0  0  0
 19 18  2  0  0  0  0
 19 22  1  0  0  0  0
 20 21  1  0  0  0  0
 21 14  1  0  0  0  0
 22 23  1  0  0  0  0
M  END
>  <MODEL>
7

>  <REMARK>
 VINA RESULT:    -5.597      5.421      8.500
 INTER + INTRA:          -9.930
 INTER:                  -9.256
 INTRA:                  -0.674
 UNBOUND:                -1.061
  Name = CHEMBL2049036
  13 active torsions:
  status: ('A' for Active; 'I' for Inactive)
    1  A    between atoms: C_1  and  O_2
    2  A    between atoms: O_2  and  C_3
    3  A    between atoms: C_6  and  C_7
    4  A    between atoms: C_7  and  C_8
    5  A    between atoms: C_8  and  N_9
    6  A    between atoms: C_10  and  C_12
    7  A    between atoms: C_12  and  C_13
    8  A    between atoms: C_13  and  C_14
    9  A    between atoms: C_14  and  C_15
   10  A    between atoms: C_15  and  C_16
   11  A    between atoms: C_16  and  C_17
   12  A    between atoms: C_20  and  O_21
   13  A    between atoms: O_21  and  C_22
                            x       y       z     vdW  Elec       q    Type
                         _______ _______ _______ _____ _____    ______ ____

>  <TORSDO>
F 10

>  <SCORE>
-5.597

>  <RMSD_LB>
5.421

>  <RMSD_UB>
8.500

$$$$
CHEMBL2049036
 OpenBabel10172500233D

 23 23  0  0  0  0  0  0  0  0999 V2000
  146.1810  137.8830  151.2010 C   0  0  0  0  0  2  0  0  0  0  0  0
  145.6000  139.2070  151.2880 N   0  0  0  0  0  0  0  0  0  0  0  0
  145.7510  140.0450  150.2040 C   0  0  0  0  0  0  0  0  0  0  0  0
  146.3770  139.7190  149.1910 O   0  0  0  0  0  0  0  0  0  0  0  0
  145.1150  139.4990  152.0940 H   0  0  0  0  0  0  0  0  0  0  0  0
  145.1160  141.4040  150.3600 C   0  0  0  0  0  2  0  0  0  0  0  0
  146.1770  142.5070  150.2980 C   0  0  0  0  0  2  0  0  0  0  0  0
  147.2130  142.3290  151.4060 C   0  0  0  0  0  2  0  0  0  0  0  0
  146.5730  142.3410  152.7980 C   0  0  0  0  0  2  0  0  0  0  0  0
  147.2520  141.3930  153.7850 C   0  0  0  0  0  0  0  0  0  0  0  0
  148.5730  141.7970  154.4030 C   0  0  0  0  0  1  0  0  0  0  0  0
  146.7450  140.3220  154.0820 O   0  0  0  0  0  0  0  0  0  0  0  0
  145.3460  136.7470  151.7860 C   0  0  0  0  0  2  0  0  0  0  0  0
  141.0680  137.3440  151.2380 C   0  0  0  0  0  0  0  0  0  0  0  0
  141.6820  137.6010  152.4680 C   0  0  0  0  0  3  0  0  0  0  0  0
  143.0530  137.4150  152.6470 C   0  0  0  0  0  3  0  0  0  0  0  0
  143.8550  136.9560  151.6010 C   0  0  0  0  0  0  0  0  0  0  0  0
  143.2430  136.6980  150.3650 C   0  0  0  0  0  3  0  0  0  0  0  0
  141.8700  136.9350  150.1570 C   0  0  0  0  0  0  0  0  0  0  0  0
  139.1830  138.7350  150.8580 C   0  0  0  0  0  1  0  0  0  0  0  0
  139.7080  137.4270  151.0800 O   0  0  0  0  0  0  0  0  0  0  0  0
  141.4630  136.6730  148.8720 O   0  0  0  0  0  0  0  0  0  0  0  0
  140.9700  135.3630  148.6150 C   0  0  0  0  0  1  0  0  0  0  0  0
  1  2  1  0  0  0  0
  1 13  1  0  0  0  0
  2  5  1  0  0  0  0
  3  6  1  0  0  0  0
  3  2  1  0  0  0  0
  4  3  2  0  0  0  0
  7  6  1  0  0  0  0
  7  8  1  0  0  0  0
  8  9  1  0  0  0  0
  9 10  1  0  0  0  0
 10 12  2  0  0  0  0
 10 11  1  0  0  0  0
 14 15  1  0  0  0  0
 15 16  2  0  0  0  0
 17 13  1  0  0  0  0
 17 16  1  0  0  0  0
 18 17  2  0  0  0  0
 19 18  1  0  0  0  0
 19 14  2  0  0  0  0
 20 21  1  0  0  0  0
 21 14  1  0  0  0  0
 22 19  1  0  0  0  0
 23 22  1  0  0  0  0
M  END
>  <MODEL>
8

>  <REMARK>
 VINA RESULT:    -5.594      8.052     12.316
 INTER + INTRA:          -9.925
 INTER:                  -8.927
 INTRA:                  -0.999
 UNBOUND:                -1.061
  Name = CHEMBL2049036
  13 active torsions:
  status: ('A' for Active; 'I' for Inactive)
    1  A    between atoms: C_1  and  O_2
    2  A    between atoms: O_2  and  C_3
    3  A    between atoms: C_6  and  C_7
    4  A    between atoms: C_7  and  C_8
    5  A    between atoms: C_8  and  N_9
    6  A    between atoms: C_10  and  C_12
    7  A    between atoms: C_12  and  C_13
    8  A    between atoms: C_13  and  C_14
    9  A    between atoms: C_14  and  C_15
   10  A    between atoms: C_15  and  C_16
   11  A    between atoms: C_16  and  C_17
   12  A    between atoms: C_20  and  O_21
   13  A    between atoms: O_21  and  C_22
                            x       y       z     vdW  Elec       q    Type
                         _______ _______ _______ _____ _____    ______ ____

>  <TORSDO>
F 10

>  <SCORE>
-5.594

>  <RMSD_LB>
8.052

>  <RMSD_UB>
12.316

$$$$
CHEMBL2049036
 OpenBabel10172500233D

 23 23  0  0  0  0  0  0  0  0999 V2000
  137.5180  136.6900  150.3520 C   0  0  0  0  0  2  0  0  0  0  0  0
  136.4610  136.4040  149.4030 N   0  0  0  0  0  0  0  0  0  0  0  0
  136.0810  137.4140  148.5450 C   0  0  0  0  0  0  0  0  0  0  0  0
  136.5840  138.5410  148.5760 O   0  0  0  0  0  0  0  0  0  0  0  0
  136.0280  135.5200  149.3740 H   0  0  0  0  0  0  0  0  0  0  0  0
  134.9810  137.0450  147.5800 C   0  0  0  0  0  2  0  0  0  0  0  0
  133.6310  136.9810  148.3000 C   0  0  0  0  0  2  0  0  0  0  0  0
  132.8000  135.8020  147.7980 C   0  0  0  0  0  2  0  0  0  0  0  0
  133.5440  134.4700  147.9500 C   0  0  0  0  0  2  0  0  0  0  0  0
  133.7510  134.0550  149.4050 C   0  0  0  0  0  0  0  0  0  0  0  0
  132.5410  133.7690  150.2680 C   0  0  0  0  0  1  0  0  0  0  0  0
  134.8720  133.9490  149.8780 O   0  0  0  0  0  0  0  0  0  0  0  0
  137.0980  136.7710  151.8160 C   0  0  0  0  0  2  0  0  0  0  0  0
  140.0030  138.8350  154.3170 C   0  0  0  0  0  0  0  0  0  0  0  0
  140.2160  138.6760  152.9440 C   0  0  0  0  0  3  0  0  0  0  0  0
  139.2860  138.0190  152.1380 C   0  0  0  0  0  3  0  0  0  0  0  0
  138.1140  137.4900  152.6820 C   0  0  0  0  0  0  0  0  0  0  0  0
  137.8970  137.6480  154.0600 C   0  0  0  0  0  3  0  0  0  0  0  0
  138.8030  138.3580  154.8740 C   0  0  0  0  0  0  0  0  0  0  0  0
  142.3130  139.1360  154.7730 C   0  0  0  0  0  1  0  0  0  0  0  0
  140.9560  139.3900  155.1340 O   0  0  0  0  0  0  0  0  0  0  0  0
  138.3970  138.4530  156.1820 O   0  0  0  0  0  0  0  0  0  0  0  0
  137.1630  137.8250  156.5130 C   0  0  0  0  0  1  0  0  0  0  0  0
  1 13  1  0  0  0  0
  2  1  1  0  0  0  0
  3  4  2  0  0  0  0
  3  2  1  0  0  0  0
  5  2  1  0  0  0  0
  6  7  1  0  0  0  0
  6  3  1  0  0  0  0
  8  9  1  0  0  0  0
  8  7  1  0  0  0  0
  9 10  1  0  0  0  0
 10 12  2  0  0  0  0
 10 11  1  0  0  0  0
 13 17  1  0  0  0  0
 14 19  1  0  0  0  0
 14 21  1  0  0  0  0
 15 14  2  0  0  0  0
 16 17  2  0  0  0  0
 16 15  1  0  0  0  0
 17 18  1  0  0  0  0
 18 19  2  0  0  0  0
 19 22  1  0  0  0  0
 20 21  1  0  0  0  0
 22 23  1  0  0  0  0
M  END
>  <MODEL>
9

>  <REMARK>
 VINA RESULT:    -5.593      2.940      4.065
 INTER + INTRA:          -9.923
 INTER:                  -8.862
 INTRA:                  -1.061
 UNBOUND:                -1.061
  Name = CHEMBL2049036
  13 active torsions:
  status: ('A' for Active; 'I' for Inactive)
    1  A    between atoms: C_1  and  O_2
    2  A    between atoms: O_2  and  C_3
    3  A    between atoms: C_6  and  C_7
    4  A    between atoms: C_7  and  C_8
    5  A    between atoms: C_8  and  N_9
    6  A    between atoms: C_10  and  C_12
    7  A    between atoms: C_12  and  C_13
    8  A    between atoms: C_13  and  C_14
    9  A    between atoms: C_14  and  C_15
   10  A    between atoms: C_15  and  C_16
   11  A    between atoms: C_16  and  C_17
   12  A    between atoms: C_20  and  O_21
   13  A    between atoms: O_21  and  C_22
                            x       y       z     vdW  Elec       q    Type
                         _______ _______ _______ _____ _____    ______ ____

>  <TORSDO>
F 10

>  <SCORE>
-5.593

>  <RMSD_LB>
2.940

>  <RMSD_UB>
4.065

$$$$
