CHEMBL3186900
 OpenBabel10172500153D

 12 12  0  0  0  0  0  0  0  0999 V2000
  147.4190  142.2760  151.2650 C   0  0  0  0  0  0  0  0  0  0  0  0
  148.7880  142.2480  151.5400 C   0  0  0  0  0  3  0  0  0  0  0  0
  149.2480  141.7980  152.7790 C   0  0  0  0  0  3  0  0  0  0  0  0
  148.3440  141.3640  153.7540 C   0  0  0  0  0  0  0  0  0  0  0  0
  146.9680  141.3870  153.5020 C   0  0  0  0  0  0  0  0  0  0  0  0
  146.5220  141.8500  152.2550 C   0  0  0  0  0  3  0  0  0  0  0  0
  146.2570  141.5510  149.1680 C   0  0  0  0  0  1  0  0  0  0  0  0
  146.9130  142.7050  149.9120 C   0  0  0  0  0  2  0  0  0  0  0  0
  148.8470  140.9210  154.9450 O   0  0  0  0  0  0  0  0  0  0  0  0
  149.7560  140.7060  155.0200 H   0  0  0  0  0  0  0  0  0  0  0  0
  145.9430  140.9960  154.3210 O   0  0  0  0  0  0  0  0  0  0  0  0
  145.0720  139.9740  153.8610 C   0  0  0  0  0  1  0  0  0  0  0  0
  1  2  2  0  0  0  0
  1  6  1  0  0  0  0
  2  3  1  0  0  0  0
  3  4  2  0  0  0  0
  4  9  1  0  0  0  0
  5  4  1  0  0  0  0
  5 11  1  0  0  0  0
  6  5  2  0  0  0  0
  7  8  1  0  0  0  0
  8  1  1  0  0  0  0
  9 10  1  0  0  0  0
 12 11  1  0  0  0  0
M  END
>  <MODEL>
1

>  <REMARK>
 VINA RESULT:    -5.245      0.000      0.000
 INTER + INTRA:          -6.142
 INTER:                  -6.049
 INTRA:                  -0.093
 UNBOUND:                -0.131
  Name = CHEMBL3186900
  5 active torsions:
  status: ('A' for Active; 'I' for Inactive)
    1  A    between atoms: C_1  and  C_2
    2  A    between atoms: C_2  and  C_3
    3  A    between atoms: C_6  and  O_7
    4  A    between atoms: C_8  and  O_9
    5  A    between atoms: O_9  and  C_10
                            x       y       z     vdW  Elec       q    Type
                         _______ _______ _______ _____ _____    ______ ____

>  <TORSDO>
F 3

>  <SCORE>
-5.245

>  <RMSD_LB>
0.000

>  <RMSD_UB>
0.000

$$$$
CHEMBL3186900
 OpenBabel10172500153D

 12 12  0  0  0  0  0  0  0  0999 V2000
  133.7290  133.9740  150.3330 C   0  0  0  0  0  0  0  0  0  0  0  0
  134.1290  132.7450  149.8030 C   0  0  0  0  0  3  0  0  0  0  0  0
  133.9760  132.4840  148.4400 C   0  0  0  0  0  3  0  0  0  0  0  0
  133.4300  133.4520  147.5910 C   0  0  0  0  0  0  0  0  0  0  0  0
  133.0190  134.6890  148.1020 C   0  0  0  0  0  0  0  0  0  0  0  0
  133.1710  134.9310  149.4750 C   0  0  0  0  0  3  0  0  0  0  0  0
  133.8450  135.7830  152.0610 C   0  0  0  0  0  1  0  0  0  0  0  0
  133.9410  134.2890  151.7920 C   0  0  0  0  0  2  0  0  0  0  0  0
  133.3140  133.1520  146.2620 O   0  0  0  0  0  0  0  0  0  0  0  0
  134.0740  133.1550  145.7130 H   0  0  0  0  0  0  0  0  0  0  0  0
  132.4780  135.7520  147.4310 O   0  0  0  0  0  0  0  0  0  0  0  0
  132.7380  137.0570  147.9240 C   0  0  0  0  0  1  0  0  0  0  0  0
  1  8  1  0  0  0  0
  2  1  1  0  0  0  0
  3  2  2  0  0  0  0
  4  5  2  0  0  0  0
  4  3  1  0  0  0  0
  5  6  1  0  0  0  0
  6  1  2  0  0  0  0
  8  7  1  0  0  0  0
  9  4  1  0  0  0  0
 10  9  1  0  0  0  0
 11 12  1  0  0  0  0
 11  5  1  0  0  0  0
M  END
>  <MODEL>
2

>  <REMARK>
 VINA RESULT:    -4.856     15.336     16.507
 INTER + INTRA:          -5.696
 INTER:                  -5.598
 INTRA:                  -0.098
 UNBOUND:                -0.131
  Name = CHEMBL3186900
  5 active torsions:
  status: ('A' for Active; 'I' for Inactive)
    1  A    between atoms: C_1  and  C_2
    2  A    between atoms: C_2  and  C_3
    3  A    between atoms: C_6  and  O_7
    4  A    between atoms: C_8  and  O_9
    5  A    between atoms: O_9  and  C_10
                            x       y       z     vdW  Elec       q    Type
                         _______ _______ _______ _____ _____    ______ ____

>  <TORSDO>
F 3

>  <SCORE>
-4.856

>  <RMSD_LB>
15.336

>  <RMSD_UB>
16.507

$$$$
CHEMBL3186900
 OpenBabel10172500153D

 12 12  0  0  0  0  0  0  0  0999 V2000
  146.2810  141.8050  152.3490 C   0  0  0  0  0  0  0  0  0  0  0  0
  147.1880  142.3240  151.4230 C   0  0  0  0  0  3  0  0  0  0  0  0
  146.9860  142.1290  150.0550 C   0  0  0  0  0  3  0  0  0  0  0  0
  145.8690  141.4190  149.6000 C   0  0  0  0  0  0  0  0  0  0  0  0
  144.9500  140.8880  150.5110 C   0  0  0  0  0  0  0  0  0  0  0  0
  145.1730  141.0850  151.8810 C   0  0  0  0  0  3  0  0  0  0  0  0
  147.9030  141.8620  154.2570 C   0  0  0  0  0  1  0  0  0  0  0  0
  146.4580  142.0590  153.8250 C   0  0  0  0  0  2  0  0  0  0  0  0
  145.7100  141.2670  148.2500 O   0  0  0  0  0  0  0  0  0  0  0  0
  144.9240  141.5630  147.8340 H   0  0  0  0  0  0  0  0  0  0  0  0
  143.8050  140.1820  150.2550 O   0  0  0  0  0  0  0  0  0  0  0  0
  143.0040  139.7850  151.3570 C   0  0  0  0  0  1  0  0  0  0  0  0
  1  8  1  0  0  0  0
  2  1  2  0  0  0  0
  3  2  1  0  0  0  0
  4  3  2  0  0  0  0
  4  5  1  0  0  0  0
  5  6  2  0  0  0  0
  6  1  1  0  0  0  0
  8  7  1  0  0  0  0
  9  4  1  0  0  0  0
 10  9  1  0  0  0  0
 11  5  1  0  0  0  0
 11 12  1  0  0  0  0
M  END
>  <MODEL>
3

>  <REMARK>
 VINA RESULT:    -4.817      2.761      4.144
 INTER + INTRA:          -5.652
 INTER:                  -5.540
 INTRA:                  -0.112
 UNBOUND:                -0.131
  Name = CHEMBL3186900
  5 active torsions:
  status: ('A' for Active; 'I' for Inactive)
    1  A    between atoms: C_1  and  C_2
    2  A    between atoms: C_2  and  C_3
    3  A    between atoms: C_6  and  O_7
    4  A    between atoms: C_8  and  O_9
    5  A    between atoms: O_9  and  C_10
                            x       y       z     vdW  Elec       q    Type
                         _______ _______ _______ _____ _____    ______ ____

>  <TORSDO>
F 3

>  <SCORE>
-4.817

>  <RMSD_LB>
2.761

>  <RMSD_UB>
4.144

$$$$
CHEMBL3186900
 OpenBabel10172500153D

 12 12  0  0  0  0  0  0  0  0999 V2000
  135.6950  135.6050  155.6100 C   0  0  0  0  0  0  0  0  0  0  0  0
  135.8420  135.3190  156.9700 C   0  0  0  0  0  3  0  0  0  0  0  0
  136.4910  136.2230  157.8120 C   0  0  0  0  0  3  0  0  0  0  0  0
  136.9930  137.4260  157.3060 C   0  0  0  0  0  0  0  0  0  0  0  0
  136.8600  137.7320  155.9470 C   0  0  0  0  0  0  0  0  0  0  0  0
  136.2140  136.8090  155.1120 C   0  0  0  0  0  3  0  0  0  0  0  0
  135.5740  134.6050  153.3170 C   0  0  0  0  0  1  0  0  0  0  0  0
  134.9460  134.6640  154.7020 C   0  0  0  0  0  2  0  0  0  0  0  0
  137.6090  138.2830  158.1760 O   0  0  0  0  0  0  0  0  0  0  0  0
  138.0890  137.9450  158.9070 H   0  0  0  0  0  0  0  0  0  0  0  0
  137.2740  138.8530  155.2800 O   0  0  0  0  0  0  0  0  0  0  0  0
  138.4400  138.7600  154.4750 C   0  0  0  0  0  1  0  0  0  0  0  0
  1  2  1  0  0  0  0
  2  3  2  0  0  0  0
  4  3  1  0  0  0  0
  4  9  1  0  0  0  0
  5  4  2  0  0  0  0
  6  1  2  0  0  0  0
  6  5  1  0  0  0  0
  7  8  1  0  0  0  0
  8  1  1  0  0  0  0
  9 10  1  0  0  0  0
 11  5  1  0  0  0  0
 12 11  1  0  0  0  0
M  END
>  <MODEL>
4

>  <REMARK>
 VINA RESULT:    -4.748      9.981     12.663
 INTER + INTRA:          -5.573
 INTER:                  -5.475
 INTRA:                  -0.098
 UNBOUND:                -0.131
  Name = CHEMBL3186900
  5 active torsions:
  status: ('A' for Active; 'I' for Inactive)
    1  A    between atoms: C_1  and  C_2
    2  A    between atoms: C_2  and  C_3
    3  A    between atoms: C_6  and  O_7
    4  A    between atoms: C_8  and  O_9
    5  A    between atoms: O_9  and  C_10
                            x       y       z     vdW  Elec       q    Type
                         _______ _______ _______ _____ _____    ______ ____

>  <TORSDO>
F 3

>  <SCORE>
-4.748

>  <RMSD_LB>
9.981

>  <RMSD_UB>
12.663

$$$$
CHEMBL3186900
 OpenBabel10172500153D

 12 12  0  0  0  0  0  0  0  0999 V2000
  141.1110  137.6810  152.0510 C   0  0  0  0  0  0  0  0  0  0  0  0
  139.7810  137.5520  151.6450 C   0  0  0  0  0  3  0  0  0  0  0  0
  138.7490  138.0350  152.4520 C   0  0  0  0  0  3  0  0  0  0  0  0
  139.0380  138.6590  153.6700 C   0  0  0  0  0  0  0  0  0  0  0  0
  140.3630  138.7950  154.0990 C   0  0  0  0  0  0  0  0  0  0  0  0
  141.3870  138.2960  153.2800 C   0  0  0  0  0  3  0  0  0  0  0  0
  142.1260  137.8060  149.7650 C   0  0  0  0  0  1  0  0  0  0  0  0
  142.2360  137.2160  151.1630 C   0  0  0  0  0  2  0  0  0  0  0  0
  137.9920  139.1260  154.4170 O   0  0  0  0  0  0  0  0  0  0  0  0
  137.4080  138.5230  154.8360 H   0  0  0  0  0  0  0  0  0  0  0  0
  140.8340  139.3800  155.2430 O   0  0  0  0  0  0  0  0  0  0  0  0
  142.2400  139.4530  155.4270 C   0  0  0  0  0  1  0  0  0  0  0  0
  1  6  1  0  0  0  0
  2  1  2  0  0  0  0
  2  3  1  0  0  0  0
  3  4  2  0  0  0  0
  4  5  1  0  0  0  0
  4  9  1  0  0  0  0
  5 11  1  0  0  0  0
  6  5  2  0  0  0  0
  7  8  1  0  0  0  0
  8  1  1  0  0  0  0
  9 10  1  0  0  0  0
 11 12  1  0  0  0  0
M  END
>  <MODEL>
5

>  <REMARK>
 VINA RESULT:    -4.612      6.541      8.093
 INTER + INTRA:          -5.417
 INTER:                  -5.306
 INTRA:                  -0.111
 UNBOUND:                -0.131
  Name = CHEMBL3186900
  5 active torsions:
  status: ('A' for Active; 'I' for Inactive)
    1  A    between atoms: C_1  and  C_2
    2  A    between atoms: C_2  and  C_3
    3  A    between atoms: C_6  and  O_7
    4  A    between atoms: C_8  and  O_9
    5  A    between atoms: O_9  and  C_10
                            x       y       z     vdW  Elec       q    Type
                         _______ _______ _______ _____ _____    ______ ____

>  <TORSDO>
F 3

>  <SCORE>
-4.612

>  <RMSD_LB>
6.541

>  <RMSD_UB>
8.093

$$$$
CHEMBL3186900
 OpenBabel10172500153D

 12 12  0  0  0  0  0  0  0  0999 V2000
  148.0190  141.5920  151.5790 C   0  0  0  0  0  0  0  0  0  0  0  0
  147.6580  142.6040  150.6870 C   0  0  0  0  0  3  0  0  0  0  0  0
  146.7220  142.3540  149.6810 C   0  0  0  0  0  3  0  0  0  0  0  0
  146.1310  141.0920  149.5630 C   0  0  0  0  0  0  0  0  0  0  0  0
  146.4810  140.0620  150.4430 C   0  0  0  0  0  0  0  0  0  0  0  0
  147.4290  140.3270  151.4420 C   0  0  0  0  0  3  0  0  0  0  0  0
  148.2920  141.8220  154.0580 C   0  0  0  0  0  1  0  0  0  0  0  0
  148.9840  141.8650  152.7040 C   0  0  0  0  0  2  0  0  0  0  0  0
  145.2110  140.9030  148.5690 O   0  0  0  0  0  0  0  0  0  0  0  0
  144.6310  141.6000  148.3290 H   0  0  0  0  0  0  0  0  0  0  0  0
  146.0060  138.7790  150.4880 O   0  0  0  0  0  0  0  0  0  0  0  0
  146.6880  137.7870  149.7350 C   0  0  0  0  0  1  0  0  0  0  0  0
  1  8  1  0  0  0  0
  2  1  2  0  0  0  0
  3  2  1  0  0  0  0
  4  3  2  0  0  0  0
  4  5  1  0  0  0  0
  5 11  1  0  0  0  0
  5  6  2  0  0  0  0
  6  1  1  0  0  0  0
  8  7  1  0  0  0  0
  9  4  1  0  0  0  0
 10  9  1  0  0  0  0
 12 11  1  0  0  0  0
M  END
>  <MODEL>
6

>  <REMARK>
 VINA RESULT:    -4.582      2.663      4.220
 INTER + INTRA:          -5.383
 INTER:                  -5.278
 INTRA:                  -0.105
 UNBOUND:                -0.131
  Name = CHEMBL3186900
  5 active torsions:
  status: ('A' for Active; 'I' for Inactive)
    1  A    between atoms: C_1  and  C_2
    2  A    between atoms: C_2  and  C_3
    3  A    between atoms: C_6  and  O_7
    4  A    between atoms: C_8  and  O_9
    5  A    between atoms: O_9  and  C_10
                            x       y       z     vdW  Elec       q    Type
                         _______ _______ _______ _____ _____    ______ ____

>  <TORSDO>
F 3

>  <SCORE>
-4.582

>  <RMSD_LB>
2.663

>  <RMSD_UB>
4.220

$$$$
CHEMBL3186900
 OpenBabel10172500153D

 12 12  0  0  0  0  0  0  0  0999 V2000
  141.0970  137.5720  151.9560 C   0  0  0  0  0  0  0  0  0  0  0  0
  142.3990  137.3950  152.4300 C   0  0  0  0  0  3  0  0  0  0  0  0
  142.7540  137.8520  153.7000 C   0  0  0  0  0  3  0  0  0  0  0  0
  141.8070  138.4850  154.5130 C   0  0  0  0  0  0  0  0  0  0  0  0
  140.4980  138.6760  154.0580 C   0  0  0  0  0  0  0  0  0  0  0  0
  140.1610  138.2190  152.7750 C   0  0  0  0  0  3  0  0  0  0  0  0
  141.8950  136.6450  149.7700 C   0  0  0  0  0  1  0  0  0  0  0  0
  140.6870  137.0320  150.6100 C   0  0  0  0  0  2  0  0  0  0  0  0
  142.2020  138.9020  155.7540 O   0  0  0  0  0  0  0  0  0  0  0  0
  141.5600  139.0970  156.4100 H   0  0  0  0  0  0  0  0  0  0  0  0
  139.4440  139.2590  154.7080 O   0  0  0  0  0  0  0  0  0  0  0  0
  138.2380  138.5190  154.8240 C   0  0  0  0  0  1  0  0  0  0  0  0
  1  2  2  0  0  0  0
  1  6  1  0  0  0  0
  2  3  1  0  0  0  0
  3  4  2  0  0  0  0
  4  9  1  0  0  0  0
  5  4  1  0  0  0  0
  5 11  1  0  0  0  0
  6  5  2  0  0  0  0
  7  8  1  0  0  0  0
  8  1  1  0  0  0  0
  9 10  1  0  0  0  0
 11 12  1  0  0  0  0
M  END
>  <MODEL>
7

>  <REMARK>
 VINA RESULT:    -4.565      6.391      7.387
 INTER + INTRA:          -5.363
 INTER:                  -5.243
 INTRA:                  -0.119
 UNBOUND:                -0.131
  Name = CHEMBL3186900
  5 active torsions:
  status: ('A' for Active; 'I' for Inactive)
    1  A    between atoms: C_1  and  C_2
    2  A    between atoms: C_2  and  C_3
    3  A    between atoms: C_6  and  O_7
    4  A    between atoms: C_8  and  O_9
    5  A    between atoms: O_9  and  C_10
                            x       y       z     vdW  Elec       q    Type
                         _______ _______ _______ _____ _____    ______ ____

>  <TORSDO>
F 3

>  <SCORE>
-4.565

>  <RMSD_LB>
6.391

>  <RMSD_UB>
7.387

$$$$
CHEMBL3186900
 OpenBabel10172500153D

 12 12  0  0  0  0  0  0  0  0999 V2000
  147.5390  141.5360  151.7630 C   0  0  0  0  0  0  0  0  0  0  0  0
  146.5970  142.3740  151.1610 C   0  0  0  0  0  3  0  0  0  0  0  0
  145.2750  141.9510  151.0100 C   0  0  0  0  0  3  0  0  0  0  0  0
  144.8800  140.6890  151.4670 C   0  0  0  0  0  0  0  0  0  0  0  0
  145.8080  139.8320  152.0690 C   0  0  0  0  0  0  0  0  0  0  0  0
  147.1340  140.2690  152.2040 C   0  0  0  0  0  3  0  0  0  0  0  0
  149.3090  142.0400  153.4630 C   0  0  0  0  0  1  0  0  0  0  0  0
  148.9550  142.0030  151.9830 C   0  0  0  0  0  2  0  0  0  0  0  0
  143.5710  140.3280  151.3070 O   0  0  0  0  0  0  0  0  0  0  0  0
  142.8870  140.9290  151.5350 H   0  0  0  0  0  0  0  0  0  0  0  0
  145.6060  138.5790  152.5810 O   0  0  0  0  0  0  0  0  0  0  0  0
  145.3550  138.4570  153.9730 C   0  0  0  0  0  1  0  0  0  0  0  0
  1  8  1  0  0  0  0
  1  6  1  0  0  0  0
  2  1  2  0  0  0  0
  3  2  1  0  0  0  0
  3  4  2  0  0  0  0
  4  5  1  0  0  0  0
  5  6  2  0  0  0  0
  5 11  1  0  0  0  0
  8  7  1  0  0  0  0
  9  4  1  0  0  0  0
  9 10  1  0  0  0  0
 11 12  1  0  0  0  0
M  END
>  <MODEL>
8

>  <REMARK>
 VINA RESULT:    -4.462      2.057      3.578
 INTER + INTRA:          -5.244
 INTER:                  -5.141
 INTRA:                  -0.103
 UNBOUND:                -0.131
  Name = CHEMBL3186900
  5 active torsions:
  status: ('A' for Active; 'I' for Inactive)
    1  A    between atoms: C_1  and  C_2
    2  A    between atoms: C_2  and  C_3
    3  A    between atoms: C_6  and  O_7
    4  A    between atoms: C_8  and  O_9
    5  A    between atoms: O_9  and  C_10
                            x       y       z     vdW  Elec       q    Type
                         _______ _______ _______ _____ _____    ______ ____

>  <TORSDO>
F 3

>  <SCORE>
-4.462

>  <RMSD_LB>
2.057

>  <RMSD_UB>
3.578

$$$$
CHEMBL3186900
 OpenBabel10172500153D

 12 12  0  0  0  0  0  0  0  0999 V2000
  136.7120  136.5790  154.9390 C   0  0  0  0  0  0  0  0  0  0  0  0
  135.9810  135.9140  155.9270 C   0  0  0  0  0  3  0  0  0  0  0  0
  135.0480  134.9370  155.5730 C   0  0  0  0  0  3  0  0  0  0  0  0
  134.8430  134.6090  154.2290 C   0  0  0  0  0  0  0  0  0  0  0  0
  135.5610  135.2650  153.2230 C   0  0  0  0  0  0  0  0  0  0  0  0
  136.4870  136.2510  153.5950 C   0  0  0  0  0  3  0  0  0  0  0  0
  137.8910  137.7390  156.8200 C   0  0  0  0  0  1  0  0  0  0  0  0
  137.7620  137.5950  155.3110 C   0  0  0  0  0  2  0  0  0  0  0  0
  133.9280  133.6350  153.9370 O   0  0  0  0  0  0  0  0  0  0  0  0
  133.0530  133.6990  154.2690 H   0  0  0  0  0  0  0  0  0  0  0  0
  135.5040  135.0730  151.8690 O   0  0  0  0  0  0  0  0  0  0  0  0
  134.5990  135.8690  151.1190 C   0  0  0  0  0  1  0  0  0  0  0  0
  1  8  1  0  0  0  0
  1  2  1  0  0  0  0
  3  2  2  0  0  0  0
  4  3  1  0  0  0  0
  5  6  1  0  0  0  0
  5  4  2  0  0  0  0
  6  1  2  0  0  0  0
  8  7  1  0  0  0  0
  9  4  1  0  0  0  0
  9 10  1  0  0  0  0
 11  5  1  0  0  0  0
 12 11  1  0  0  0  0
M  END
>  <MODEL>
9

>  <REMARK>
 VINA RESULT:    -4.289     11.591     13.528
 INTER + INTRA:          -5.047
 INTER:                  -4.916
 INTRA:                  -0.131
 UNBOUND:                -0.131
  Name = CHEMBL3186900
  5 active torsions:
  status: ('A' for Active; 'I' for Inactive)
    1  A    between atoms: C_1  and  C_2
    2  A    between atoms: C_2  and  C_3
    3  A    between atoms: C_6  and  O_7
    4  A    between atoms: C_8  and  O_9
    5  A    between atoms: O_9  and  C_10
                            x       y       z     vdW  Elec       q    Type
                         _______ _______ _______ _____ _____    ______ ____

>  <TORSDO>
F 3

>  <SCORE>
-4.289

>  <RMSD_LB>
11.591

>  <RMSD_UB>
13.528

$$$$
