CHEMBL75961
 OpenBabel10172500163D

 24 24  0  0  0  0  0  0  0  0999 V2000
  134.4830  135.0280  152.6080 C   0  0  0  0  0  0  0  0  0  0  0  0
  134.7880  136.0820  152.0830 O   0  0  0  0  0  0  0  0  0  0  0  0
  133.4340  134.2340  152.1830 N   0  0  0  0  0  0  0  0  0  0  0  0
  133.2530  133.3820  152.6430 H   0  0  0  0  0  0  0  0  0  0  0  0
  135.2140  134.4530  153.8140 C   0  0  0  0  0  2  0  0  0  0  0  0
  134.7450  135.1010  155.1140 C   0  0  0  0  0  2  0  0  0  0  0  0
  135.5830  136.3270  155.4920 C   0  0  0  0  0  2  0  0  0  0  0  0
  137.0700  136.0160  155.3510 C   0  0  0  0  0  2  0  0  0  0  0  0
  137.7040  135.6860  156.6990 C   0  0  0  0  0  2  0  0  0  0  0  0
  136.8260  136.1830  157.8470 C   0  0  0  0  0  2  0  0  0  0  0  0
  135.1390  135.3660  159.5210 C   0  0  0  0  0  1  0  0  0  0  0  0
  136.4130  135.0330  158.7630 C   0  0  0  0  0  2  0  0  0  0  0  0
  132.5980  134.6380  151.0710 C   0  0  0  0  0  2  0  0  0  0  0  0
  133.1730  134.2650  149.7170 C   0  0  0  0  0  0  0  0  0  0  0  0
  133.7040  132.9950  149.4810 C   0  0  0  0  0  3  0  0  0  0  0  0
  134.2390  132.6690  148.2290 C   0  0  0  0  0  3  0  0  0  0  0  0
  134.1960  133.5850  147.1590 C   0  0  0  0  0  0  0  0  0  0  0  0
  133.5830  134.8310  147.3320 C   0  0  0  0  0  0  0  0  0  0  0  0
  133.1140  135.1590  148.6300 C   0  0  0  0  0  3  0  0  0  0  0  0
  134.8840  133.1710  145.9390 N   0  0  0  0  0  0  0  0  0  0  0  0
  134.1760  132.7720  144.9940 O   0  0  0  0  0  0  0  0  0  0  0  0
  136.1210  133.1590  145.9520 O   0  0  0  0  0  0  0  0  0  0  0  0
  133.3510  135.8560  146.4580 O   0  0  0  0  0  0  0  0  0  0  0  0
  133.0730  137.1690  146.9270 C   0  0  0  0  0  1  0  0  0  0  0  0
  1  5  1  0  0  0  0
  2  1  2  0  0  0  0
  3  1  1  0  0  0  0
  3  4  1  0  0  0  0
  5  6  1  0  0  0  0
  6  7  1  0  0  0  0
  8  7  1  0  0  0  0
  8  9  1  0  0  0  0
  9 10  1  0  0  0  0
 10 12  1  0  0  0  0
 12 11  1  0  0  0  0
 13  3  1  0  0  0  0
 14 13  1  0  0  0  0
 15 14  1  0  0  0  0
 16 15  2  0  0  0  0
 17 18  2  0  0  0  0
 17 16  1  0  0  0  0
 18 19  1  0  0  0  0
 19 14  2  0  0  0  0
 20 22  2  0  0  0  0
 20 17  1  0  0  0  0
 21 20  2  0  0  0  0
 23 24  1  0  0  0  0
 23 18  1  0  0  0  0
M  END
>  <MODEL>
1

>  <REMARK>
 VINA RESULT:    -6.409      0.000      0.000
 INTER + INTRA:         -11.386
 INTER:                 -10.419
 INTRA:                  -0.967
 UNBOUND:                -0.856
  Name = CHEMBL75961
  13 active torsions:
  status: ('A' for Active; 'I' for Inactive)
    1  A    between atoms: C_1  and  C_2
    2  A    between atoms: C_2  and  C_3
    3  A    between atoms: C_3  and  C_4
    4  A    between atoms: C_4  and  C_5
    5  A    between atoms: C_5  and  C_6
    6  A    between atoms: C_6  and  C_7
    7  A    between atoms: C_7  and  C_8
    8  A    between atoms: C_8  and  C_9
    9  A    between atoms: N_11  and  C_12
   10  A    between atoms: C_12  and  C_13
   11  A    between atoms: C_16  and  N_17
   12  A    between atoms: C_20  and  O_21
   13  A    between atoms: O_21  and  C_22
                            x       y       z     vdW  Elec       q    Type
                         _______ _______ _______ _____ _____    ______ ____

>  <TORSDO>
F 11

>  <SCORE>
-6.409

>  <RMSD_LB>
0.000

>  <RMSD_UB>
0.000

$$$$
CHEMBL75961
 OpenBabel10172500163D

 24 24  0  0  0  0  0  0  0  0999 V2000
  144.9490  140.0140  152.6630 C   0  0  0  0  0  0  0  0  0  0  0  0
  145.3440  139.0100  152.1000 O   0  0  0  0  0  0  0  0  0  0  0  0
  144.0420  140.0020  153.7060 N   0  0  0  0  0  0  0  0  0  0  0  0
  143.7780  140.8510  154.1290 H   0  0  0  0  0  0  0  0  0  0  0  0
  145.3980  141.4170  152.2800 C   0  0  0  0  0  2  0  0  0  0  0  0
  146.5210  141.9130  153.1890 C   0  0  0  0  0  2  0  0  0  0  0  0
  147.8530  142.0600  152.4450 C   0  0  0  0  0  2  0  0  0  0  0  0
  148.5750  140.7170  152.3820 C   0  0  0  0  0  2  0  0  0  0  0  0
  148.6080  140.0340  153.7460 C   0  0  0  0  0  2  0  0  0  0  0  0
  148.6470  138.5150  153.5910 C   0  0  0  0  0  2  0  0  0  0  0  0
  146.9680  138.6330  155.4560 C   0  0  0  0  0  1  0  0  0  0  0  0
  148.0870  137.8190  154.8300 C   0  0  0  0  0  2  0  0  0  0  0  0
  143.4730  138.7570  154.1840 C   0  0  0  0  0  2  0  0  0  0  0  0
  142.0840  138.4810  153.6410 C   0  0  0  0  0  0  0  0  0  0  0  0
  141.8970  137.7270  152.4800 C   0  0  0  0  0  3  0  0  0  0  0  0
  140.6090  137.4880  151.9870 C   0  0  0  0  0  3  0  0  0  0  0  0
  139.4690  137.9420  152.6800 C   0  0  0  0  0  0  0  0  0  0  0  0
  139.6160  138.6150  153.8970 C   0  0  0  0  0  0  0  0  0  0  0  0
  140.9330  138.9040  154.3350 C   0  0  0  0  0  3  0  0  0  0  0  0
  138.1890  137.7290  152.0090 N   0  0  0  0  0  0  0  0  0  0  0  0
  137.3520  137.0150  152.5940 O   0  0  0  0  0  0  0  0  0  0  0  0
  138.0520  138.1930  150.8700 O   0  0  0  0  0  0  0  0  0  0  0  0
  138.6930  139.0920  154.7860 O   0  0  0  0  0  0  0  0  0  0  0  0
  138.1230  138.2440  155.7740 C   0  0  0  0  0  1  0  0  0  0  0  0
  1  3  1  0  0  0  0
  2  1  2  0  0  0  0
  3  4  1  0  0  0  0
  3 13  1  0  0  0  0
  5  1  1  0  0  0  0
  5  6  1  0  0  0  0
  7  6  1  0  0  0  0
  8  7  1  0  0  0  0
  8  9  1  0  0  0  0
 10  9  1  0  0  0  0
 10 12  1  0  0  0  0
 12 11  1  0  0  0  0
 14 13  1  0  0  0  0
 14 19  1  0  0  0  0
 15 14  2  0  0  0  0
 16 15  1  0  0  0  0
 16 17  2  0  0  0  0
 17 18  1  0  0  0  0
 18 19  2  0  0  0  0
 18 23  1  0  0  0  0
 20 21  2  0  0  0  0
 20 17  1  0  0  0  0
 22 20  2  0  0  0  0
 23 24  1  0  0  0  0
M  END
>  <MODEL>
2

>  <REMARK>
 VINA RESULT:    -6.385      8.613     11.174
 INTER + INTRA:         -11.347
 INTER:                 -10.010
 INTRA:                  -1.336
 UNBOUND:                -0.856
  Name = CHEMBL75961
  13 active torsions:
  status: ('A' for Active; 'I' for Inactive)
    1  A    between atoms: C_1  and  C_2
    2  A    between atoms: C_2  and  C_3
    3  A    between atoms: C_3  and  C_4
    4  A    between atoms: C_4  and  C_5
    5  A    between atoms: C_5  and  C_6
    6  A    between atoms: C_6  and  C_7
    7  A    between atoms: C_7  and  C_8
    8  A    between atoms: C_8  and  C_9
    9  A    between atoms: N_11  and  C_12
   10  A    between atoms: C_12  and  C_13
   11  A    between atoms: C_16  and  N_17
   12  A    between atoms: C_20  and  O_21
   13  A    between atoms: O_21  and  C_22
                            x       y       z     vdW  Elec       q    Type
                         _______ _______ _______ _____ _____    ______ ____

>  <TORSDO>
F 11

>  <SCORE>
-6.385

>  <RMSD_LB>
8.613

>  <RMSD_UB>
11.174

$$$$
CHEMBL75961
 OpenBabel10172500163D

 24 24  0  0  0  0  0  0  0  0999 V2000
  146.6690  138.3970  153.9920 C   0  0  0  0  0  0  0  0  0  0  0  0
  147.2440  137.9340  153.0240 O   0  0  0  0  0  0  0  0  0  0  0  0
  145.4240  137.9760  154.4190 N   0  0  0  0  0  0  0  0  0  0  0  0
  145.0240  138.3820  155.2220 H   0  0  0  0  0  0  0  0  0  0  0  0
  147.2470  139.5140  154.8500 C   0  0  0  0  0  2  0  0  0  0  0  0
  148.1540  140.4340  154.0360 C   0  0  0  0  0  2  0  0  0  0  0  0
  147.8020  141.9140  154.2190 C   0  0  0  0  0  2  0  0  0  0  0  0
  146.4390  142.2160  153.6030 C   0  0  0  0  0  2  0  0  0  0  0  0
  146.5040  142.2260  152.0780 C   0  0  0  0  0  2  0  0  0  0  0  0
  145.1790  141.7620  151.4760 C   0  0  0  0  0  2  0  0  0  0  0  0
  144.9570  139.9180  149.7840 C   0  0  0  0  0  1  0  0  0  0  0  0
  145.1740  140.2520  151.2500 C   0  0  0  0  0  2  0  0  0  0  0  0
  144.7000  136.9450  153.7020 C   0  0  0  0  0  2  0  0  0  0  0  0
  143.3470  137.4020  153.1920 C   0  0  0  0  0  0  0  0  0  0  0  0
  143.0230  137.3340  151.8350 C   0  0  0  0  0  3  0  0  0  0  0  0
  141.7720  137.7690  151.3790 C   0  0  0  0  0  3  0  0  0  0  0  0
  140.7870  138.2210  152.2800 C   0  0  0  0  0  0  0  0  0  0  0  0
  141.0420  138.2090  153.6550 C   0  0  0  0  0  0  0  0  0  0  0  0
  142.3410  137.8320  154.0810 C   0  0  0  0  0  3  0  0  0  0  0  0
  139.5680  138.7510  151.6750 N   0  0  0  0  0  0  0  0  0  0  0  0
  138.5330  138.0660  151.7870 O   0  0  0  0  0  0  0  0  0  0  0  0
  139.6580  139.7960  151.0190 O   0  0  0  0  0  0  0  0  0  0  0  0
  140.2530  138.5250  154.7260 O   0  0  0  0  0  0  0  0  0  0  0  0
  140.4530  137.9060  155.9900 C   0  0  0  0  0  1  0  0  0  0  0  0
  1  3  1  0  0  0  0
  1  5  1  0  0  0  0
  2  1  2  0  0  0  0
  3  4  1  0  0  0  0
  6  7  1  0  0  0  0
  6  5  1  0  0  0  0
  8  7  1  0  0  0  0
  9  8  1  0  0  0  0
 10  9  1  0  0  0  0
 11 12  1  0  0  0  0
 12 10  1  0  0  0  0
 13  3  1  0  0  0  0
 14 13  1  0  0  0  0
 14 19  1  0  0  0  0
 15 14  2  0  0  0  0
 16 15  1  0  0  0  0
 16 17  2  0  0  0  0
 17 18  1  0  0  0  0
 18 19  2  0  0  0  0
 18 23  1  0  0  0  0
 20 21  2  0  0  0  0
 20 17  1  0  0  0  0
 22 20  2  0  0  0  0
 23 24  1  0  0  0  0
M  END
>  <MODEL>
3

>  <REMARK>
 VINA RESULT:    -6.314      8.975     11.724
 INTER + INTRA:         -11.231
 INTER:                  -9.706
 INTRA:                  -1.524
 UNBOUND:                -0.856
  Name = CHEMBL75961
  13 active torsions:
  status: ('A' for Active; 'I' for Inactive)
    1  A    between atoms: C_1  and  C_2
    2  A    between atoms: C_2  and  C_3
    3  A    between atoms: C_3  and  C_4
    4  A    between atoms: C_4  and  C_5
    5  A    between atoms: C_5  and  C_6
    6  A    between atoms: C_6  and  C_7
    7  A    between atoms: C_7  and  C_8
    8  A    between atoms: C_8  and  C_9
    9  A    between atoms: N_11  and  C_12
   10  A    between atoms: C_12  and  C_13
   11  A    between atoms: C_16  and  N_17
   12  A    between atoms: C_20  and  O_21
   13  A    between atoms: O_21  and  C_22
                            x       y       z     vdW  Elec       q    Type
                         _______ _______ _______ _____ _____    ______ ____

>  <TORSDO>
F 11

>  <SCORE>
-6.314

>  <RMSD_LB>
8.975

>  <RMSD_UB>
11.724

$$$$
CHEMBL75961
 OpenBabel10172500163D

 24 24  0  0  0  0  0  0  0  0999 V2000
  135.2800  135.6450  154.1150 C   0  0  0  0  0  0  0  0  0  0  0  0
  134.3240  136.3900  154.2290 O   0  0  0  0  0  0  0  0  0  0  0  0
  135.2530  134.4690  153.3900 N   0  0  0  0  0  0  0  0  0  0  0  0
  136.0690  133.9210  153.3240 H   0  0  0  0  0  0  0  0  0  0  0  0
  136.6280  135.9100  154.7700 C   0  0  0  0  0  2  0  0  0  0  0  0
  136.5070  136.9180  155.9100 C   0  0  0  0  0  2  0  0  0  0  0  0
  137.3910  138.1520  155.6960 C   0  0  0  0  0  2  0  0  0  0  0  0
  138.8280  137.8540  156.1140 C   0  0  0  0  0  2  0  0  0  0  0  0
  139.8120  138.1580  154.9880 C   0  0  0  0  0  2  0  0  0  0  0  0
  139.0880  138.7530  153.7810 C   0  0  0  0  0  2  0  0  0  0  0  0
  138.1270  137.4630  151.8510 C   0  0  0  0  0  1  0  0  0  0  0  0
  139.4000  137.9680  152.5080 C   0  0  0  0  0  2  0  0  0  0  0  0
  134.0420  134.0310  152.7260 C   0  0  0  0  0  2  0  0  0  0  0  0
  134.1830  133.9270  151.2190 C   0  0  0  0  0  0  0  0  0  0  0  0
  133.1250  133.4880  150.4210 C   0  0  0  0  0  3  0  0  0  0  0  0
  133.2750  133.3890  149.0320 C   0  0  0  0  0  3  0  0  0  0  0  0
  134.4680  133.7920  148.3980 C   0  0  0  0  0  0  0  0  0  0  0  0
  135.5130  134.3290  149.1580 C   0  0  0  0  0  0  0  0  0  0  0  0
  135.3590  134.3500  150.5680 C   0  0  0  0  0  3  0  0  0  0  0  0
  134.5430  133.5360  146.9630 N   0  0  0  0  0  0  0  0  0  0  0  0
  134.1150  134.4270  146.2030 O   0  0  0  0  0  0  0  0  0  0  0  0
  134.9420  132.4240  146.5960 O   0  0  0  0  0  0  0  0  0  0  0  0
  136.7240  134.8470  148.7940 O   0  0  0  0  0  0  0  0  0  0  0  0
  136.8100  136.0690  148.0720 C   0  0  0  0  0  1  0  0  0  0  0  0
  1  2  2  0  0  0  0
  1  5  1  0  0  0  0
  3  1  1  0  0  0  0
  4  3  1  0  0  0  0
  5  6  1  0  0  0  0
  7  6  1  0  0  0  0
  7  8  1  0  0  0  0
  9  8  1  0  0  0  0
 10  9  1  0  0  0  0
 11 12  1  0  0  0  0
 12 10  1  0  0  0  0
 13  3  1  0  0  0  0
 14 13  1  0  0  0  0
 15 14  2  0  0  0  0
 16 15  1  0  0  0  0
 17 16  2  0  0  0  0
 17 18  1  0  0  0  0
 18 19  2  0  0  0  0
 19 14  1  0  0  0  0
 20 17  1  0  0  0  0
 21 20  2  0  0  0  0
 22 20  2  0  0  0  0
 23 18  1  0  0  0  0
 24 23  1  0  0  0  0
M  END
>  <MODEL>
4

>  <REMARK>
 VINA RESULT:    -6.301      2.388      3.502
 INTER + INTRA:         -11.209
 INTER:                  -9.873
 INTRA:                  -1.336
 UNBOUND:                -0.856
  Name = CHEMBL75961
  13 active torsions:
  status: ('A' for Active; 'I' for Inactive)
    1  A    between atoms: C_1  and  C_2
    2  A    between atoms: C_2  and  C_3
    3  A    between atoms: C_3  and  C_4
    4  A    between atoms: C_4  and  C_5
    5  A    between atoms: C_5  and  C_6
    6  A    between atoms: C_6  and  C_7
    7  A    between atoms: C_7  and  C_8
    8  A    between atoms: C_8  and  C_9
    9  A    between atoms: N_11  and  C_12
   10  A    between atoms: C_12  and  C_13
   11  A    between atoms: C_16  and  N_17
   12  A    between atoms: C_20  and  O_21
   13  A    between atoms: O_21  and  C_22
                            x       y       z     vdW  Elec       q    Type
                         _______ _______ _______ _____ _____    ______ ____

>  <TORSDO>
F 11

>  <SCORE>
-6.301

>  <RMSD_LB>
2.388

>  <RMSD_UB>
3.502

$$$$
CHEMBL75961
 OpenBabel10172500163D

 24 24  0  0  0  0  0  0  0  0999 V2000
  137.4120  137.8720  155.8620 C   0  0  0  0  0  0  0  0  0  0  0  0
  136.9090  138.9630  155.6680 O   0  0  0  0  0  0  0  0  0  0  0  0
  138.6830  137.5270  155.4400 N   0  0  0  0  0  0  0  0  0  0  0  0
  139.0370  136.6320  155.6470 H   0  0  0  0  0  0  0  0  0  0  0  0
  136.6980  136.7390  156.5860 C   0  0  0  0  0  2  0  0  0  0  0  0
  136.3680  135.5890  155.6370 C   0  0  0  0  0  2  0  0  0  0  0  0
  135.4580  136.0250  154.4840 C   0  0  0  0  0  2  0  0  0  0  0  0
  135.8300  135.2820  153.2040 C   0  0  0  0  0  2  0  0  0  0  0  0
  134.6450  135.1870  152.2470 C   0  0  0  0  0  2  0  0  0  0  0  0
  134.1860  133.7380  152.0940 C   0  0  0  0  0  2  0  0  0  0  0  0
  134.2160  132.8960  149.7270 C   0  0  0  0  0  1  0  0  0  0  0  0
  133.3770  133.5480  150.8130 C   0  0  0  0  0  2  0  0  0  0  0  0
  139.5020  138.4660  154.6990 C   0  0  0  0  0  2  0  0  0  0  0  0
  139.7030  138.0760  153.2470 C   0  0  0  0  0  0  0  0  0  0  0  0
  140.9800  137.8580  152.7260 C   0  0  0  0  0  3  0  0  0  0  0  0
  141.1490  137.5070  151.3810 C   0  0  0  0  0  3  0  0  0  0  0  0
  140.0390  137.3000  150.5380 C   0  0  0  0  0  0  0  0  0  0  0  0
  138.7430  137.4130  151.0530 C   0  0  0  0  0  0  0  0  0  0  0  0
  138.6030  137.8390  152.3980 C   0  0  0  0  0  3  0  0  0  0  0  0
  140.3450  137.0490  149.1320 N   0  0  0  0  0  0  0  0  0  0  0  0
  140.0730  137.9550  148.3200 O   0  0  0  0  0  0  0  0  0  0  0  0
  140.7700  135.9280  148.8270 O   0  0  0  0  0  0  0  0  0  0  0  0
  137.5190  137.2030  150.4810 O   0  0  0  0  0  0  0  0  0  0  0  0
  137.2310  135.9920  149.7940 C   0  0  0  0  0  1  0  0  0  0  0  0
  1  5  1  0  0  0  0
  2  1  2  0  0  0  0
  3  4  1  0  0  0  0
  3  1  1  0  0  0  0
  6  5  1  0  0  0  0
  7  6  1  0  0  0  0
  8  7  1  0  0  0  0
  9  8  1  0  0  0  0
 10  9  1  0  0  0  0
 11 12  1  0  0  0  0
 12 10  1  0  0  0  0
 13  3  1  0  0  0  0
 14 13  1  0  0  0  0
 15 14  1  0  0  0  0
 16 15  2  0  0  0  0
 17 18  2  0  0  0  0
 17 16  1  0  0  0  0
 18 19  1  0  0  0  0
 19 14  2  0  0  0  0
 20 17  1  0  0  0  0
 21 20  2  0  0  0  0
 22 20  2  0  0  0  0
 23 18  1  0  0  0  0
 24 23  1  0  0  0  0
M  END
>  <MODEL>
5

>  <REMARK>
 VINA RESULT:    -6.195      4.232      6.852
 INTER + INTRA:         -11.034
 INTER:                  -9.814
 INTRA:                  -1.220
 UNBOUND:                -0.856
  Name = CHEMBL75961
  13 active torsions:
  status: ('A' for Active; 'I' for Inactive)
    1  A    between atoms: C_1  and  C_2
    2  A    between atoms: C_2  and  C_3
    3  A    between atoms: C_3  and  C_4
    4  A    between atoms: C_4  and  C_5
    5  A    between atoms: C_5  and  C_6
    6  A    between atoms: C_6  and  C_7
    7  A    between atoms: C_7  and  C_8
    8  A    between atoms: C_8  and  C_9
    9  A    between atoms: N_11  and  C_12
   10  A    between atoms: C_12  and  C_13
   11  A    between atoms: C_16  and  N_17
   12  A    between atoms: C_20  and  O_21
   13  A    between atoms: O_21  and  C_22
                            x       y       z     vdW  Elec       q    Type
                         _______ _______ _______ _____ _____    ______ ____

>  <TORSDO>
F 11

>  <SCORE>
-6.195

>  <RMSD_LB>
4.232

>  <RMSD_UB>
6.852

$$$$
CHEMBL75961
 OpenBabel10172500163D

 24 24  0  0  0  0  0  0  0  0999 V2000
  144.2140  139.5590  151.6580 C   0  0  0  0  0  0  0  0  0  0  0  0
  144.7660  138.5290  151.3180 O   0  0  0  0  0  0  0  0  0  0  0  0
  143.3390  139.6460  152.7250 N   0  0  0  0  0  0  0  0  0  0  0  0
  142.9410  140.5160  152.9560 H   0  0  0  0  0  0  0  0  0  0  0  0
  144.4080  140.8870  150.9380 C   0  0  0  0  0  2  0  0  0  0  0  0
  145.8410  141.3950  151.0790 C   0  0  0  0  0  2  0  0  0  0  0  0
  146.0220  142.3040  152.2990 C   0  0  0  0  0  2  0  0  0  0  0  0
  147.4190  142.1290  152.8880 C   0  0  0  0  0  2  0  0  0  0  0  0
  147.3740  141.4030  154.2300 C   0  0  0  0  0  2  0  0  0  0  0  0
  147.6580  139.9130  154.0490 C   0  0  0  0  0  2  0  0  0  0  0  0
  146.4390  137.7530  154.4520 C   0  0  0  0  0  1  0  0  0  0  0  0
  146.8760  139.0750  155.0580 C   0  0  0  0  0  2  0  0  0  0  0  0
  143.0010  138.4740  153.5060 C   0  0  0  0  0  2  0  0  0  0  0  0
  141.5200  138.3620  153.8160 C   0  0  0  0  0  0  0  0  0  0  0  0
  141.0360  138.5410  155.1140 C   0  0  0  0  0  3  0  0  0  0  0  0
  139.6670  138.4260  155.3850 C   0  0  0  0  0  3  0  0  0  0  0  0
  138.7380  138.1920  154.3510 C   0  0  0  0  0  0  0  0  0  0  0  0
  139.1780  138.1050  153.0260 C   0  0  0  0  0  0  0  0  0  0  0  0
  140.5750  138.1550  152.7910 C   0  0  0  0  0  3  0  0  0  0  0  0
  137.3570  137.9800  154.7740 N   0  0  0  0  0  0  0  0  0  0  0  0
  136.8540  138.8380  155.5270 O   0  0  0  0  0  0  0  0  0  0  0  0
  136.8050  136.9260  154.4340 O   0  0  0  0  0  0  0  0  0  0  0  0
  138.4930  137.9530  151.8530 O   0  0  0  0  0  0  0  0  0  0  0  0
  139.1730  137.6370  150.6450 C   0  0  0  0  0  1  0  0  0  0  0  0
  1  3  1  0  0  0  0
  2  1  2  0  0  0  0
  3  4  1  0  0  0  0
  3 13  1  0  0  0  0
  5  6  1  0  0  0  0
  5  1  1  0  0  0  0
  6  7  1  0  0  0  0
  7  8  1  0  0  0  0
  8  9  1  0  0  0  0
 10  9  1  0  0  0  0
 10 12  1  0  0  0  0
 11 12  1  0  0  0  0
 13 14  1  0  0  0  0
 14 15  1  0  0  0  0
 15 16  2  0  0  0  0
 17 20  1  0  0  0  0
 17 16  1  0  0  0  0
 18 17  2  0  0  0  0
 19 18  1  0  0  0  0
 19 14  2  0  0  0  0
 20 21  2  0  0  0  0
 22 20  2  0  0  0  0
 23 18  1  0  0  0  0
 24 23  1  0  0  0  0
M  END
>  <MODEL>
6

>  <REMARK>
 VINA RESULT:    -6.142      8.132     10.870
 INTER + INTRA:         -10.948
 INTER:                  -9.972
 INTRA:                  -0.976
 UNBOUND:                -0.856
  Name = CHEMBL75961
  13 active torsions:
  status: ('A' for Active; 'I' for Inactive)
    1  A    between atoms: C_1  and  C_2
    2  A    between atoms: C_2  and  C_3
    3  A    between atoms: C_3  and  C_4
    4  A    between atoms: C_4  and  C_5
    5  A    between atoms: C_5  and  C_6
    6  A    between atoms: C_6  and  C_7
    7  A    between atoms: C_7  and  C_8
    8  A    between atoms: C_8  and  C_9
    9  A    between atoms: N_11  and  C_12
   10  A    between atoms: C_12  and  C_13
   11  A    between atoms: C_16  and  N_17
   12  A    between atoms: C_20  and  O_21
   13  A    between atoms: O_21  and  C_22
                            x       y       z     vdW  Elec       q    Type
                         _______ _______ _______ _____ _____    ______ ____

>  <TORSDO>
F 11

>  <SCORE>
-6.142

>  <RMSD_LB>
8.132

>  <RMSD_UB>
10.870

$$$$
CHEMBL75961
 OpenBabel10172500163D

 24 24  0  0  0  0  0  0  0  0999 V2000
  136.2870  135.1930  150.5330 C   0  0  0  0  0  0  0  0  0  0  0  0
  136.5710  134.9600  149.3730 O   0  0  0  0  0  0  0  0  0  0  0  0
  136.8440  136.2240  151.2660 N   0  0  0  0  0  0  0  0  0  0  0  0
  136.5560  136.3690  152.1970 H   0  0  0  0  0  0  0  0  0  0  0  0
  135.2880  134.3670  151.3310 C   0  0  0  0  0  2  0  0  0  0  0  0
  135.7640  134.1470  152.7650 C   0  0  0  0  0  2  0  0  0  0  0  0
  134.6040  134.1050  153.7660 C   0  0  0  0  0  2  0  0  0  0  0  0
  134.5250  135.4180  154.5420 C   0  0  0  0  0  2  0  0  0  0  0  0
  135.9110  136.0040  154.7920 C   0  0  0  0  0  2  0  0  0  0  0  0
  136.2800  135.9100  156.2720 C   0  0  0  0  0  2  0  0  0  0  0  0
  138.2200  137.2930  157.0690 C   0  0  0  0  0  1  0  0  0  0  0  0
  137.7930  135.9650  156.4680 C   0  0  0  0  0  2  0  0  0  0  0  0
  137.8450  137.0950  150.6840 C   0  0  0  0  0  2  0  0  0  0  0  0
  138.9270  137.5100  151.6630 C   0  0  0  0  0  0  0  0  0  0  0  0
  138.6110  137.9280  152.9570 C   0  0  0  0  0  3  0  0  0  0  0  0
  139.6220  138.3160  153.8470 C   0  0  0  0  0  3  0  0  0  0  0  0
  140.9810  138.2310  153.4840 C   0  0  0  0  0  0  0  0  0  0  0  0
  141.3370  137.7230  152.2310 C   0  0  0  0  0  0  0  0  0  0  0  0
  140.2920  137.4060  151.3270 C   0  0  0  0  0  3  0  0  0  0  0  0
  141.9320  138.7690  154.4530 N   0  0  0  0  0  0  0  0  0  0  0  0
  141.4970  139.5970  155.2780 O   0  0  0  0  0  0  0  0  0  0  0  0
  143.1190  138.4400  154.3390 O   0  0  0  0  0  0  0  0  0  0  0  0
  142.5580  137.4770  151.6670 O   0  0  0  0  0  0  0  0  0  0  0  0
  142.6680  136.7550  150.4470 C   0  0  0  0  0  1  0  0  0  0  0  0
  1  3  1  0  0  0  0
  1  5  1  0  0  0  0
  2  1  2  0  0  0  0
  3  4  1  0  0  0  0
  5  6  1  0  0  0  0
  6  7  1  0  0  0  0
  7  8  1  0  0  0  0
  8  9  1  0  0  0  0
  9 10  1  0  0  0  0
 10 12  1  0  0  0  0
 12 11  1  0  0  0  0
 13  3  1  0  0  0  0
 13 14  1  0  0  0  0
 14 15  1  0  0  0  0
 15 16  2  0  0  0  0
 17 16  1  0  0  0  0
 17 20  1  0  0  0  0
 18 17  2  0  0  0  0
 19 14  2  0  0  0  0
 19 18  1  0  0  0  0
 20 21  2  0  0  0  0
 22 20  2  0  0  0  0
 23 18  1  0  0  0  0
 24 23  1  0  0  0  0
M  END
>  <MODEL>
7

>  <REMARK>
 VINA RESULT:    -6.131      4.923      7.595
 INTER + INTRA:         -10.930
 INTER:                  -9.723
 INTRA:                  -1.207
 UNBOUND:                -0.856
  Name = CHEMBL75961
  13 active torsions:
  status: ('A' for Active; 'I' for Inactive)
    1  A    between atoms: C_1  and  C_2
    2  A    between atoms: C_2  and  C_3
    3  A    between atoms: C_3  and  C_4
    4  A    between atoms: C_4  and  C_5
    5  A    between atoms: C_5  and  C_6
    6  A    between atoms: C_6  and  C_7
    7  A    between atoms: C_7  and  C_8
    8  A    between atoms: C_8  and  C_9
    9  A    between atoms: N_11  and  C_12
   10  A    between atoms: C_12  and  C_13
   11  A    between atoms: C_16  and  N_17
   12  A    between atoms: C_20  and  O_21
   13  A    between atoms: O_21  and  C_22
                            x       y       z     vdW  Elec       q    Type
                         _______ _______ _______ _____ _____    ______ ____

>  <TORSDO>
F 11

>  <SCORE>
-6.131

>  <RMSD_LB>
4.923

>  <RMSD_UB>
7.595

$$$$
CHEMBL75961
 OpenBabel10172500163D

 24 24  0  0  0  0  0  0  0  0999 V2000
  146.5800  137.9290  151.9030 C   0  0  0  0  0  0  0  0  0  0  0  0
  146.8200  138.5930  150.9110 O   0  0  0  0  0  0  0  0  0  0  0  0
  145.5000  137.0730  152.0100 N   0  0  0  0  0  0  0  0  0  0  0  0
  145.3740  136.5510  152.8350 H   0  0  0  0  0  0  0  0  0  0  0  0
  147.4360  137.9670  153.1610 C   0  0  0  0  0  2  0  0  0  0  0  0
  148.5890  138.9590  153.0230 C   0  0  0  0  0  2  0  0  0  0  0  0
  148.5170  140.0870  154.0590 C   0  0  0  0  0  2  0  0  0  0  0  0
  147.0800  140.5790  154.2070 C   0  0  0  0  0  2  0  0  0  0  0  0
  146.9560  142.0590  153.8550 C   0  0  0  0  0  2  0  0  0  0  0  0
  146.1810  142.2430  152.5510 C   0  0  0  0  0  2  0  0  0  0  0  0
  146.4290  142.6910  150.0920 C   0  0  0  0  0  1  0  0  0  0  0  0
  147.1090  142.1580  151.3410 C   0  0  0  0  0  2  0  0  0  0  0  0
  144.5500  136.9340  150.9240 C   0  0  0  0  0  2  0  0  0  0  0  0
  143.1140  137.1860  151.3420 C   0  0  0  0  0  0  0  0  0  0  0  0
  142.0550  136.9890  150.4530 C   0  0  0  0  0  3  0  0  0  0  0  0
  140.7360  137.2350  150.8520 C   0  0  0  0  0  3  0  0  0  0  0  0
  140.4360  137.6220  152.1740 C   0  0  0  0  0  0  0  0  0  0  0  0
  141.4630  137.7340  153.1170 C   0  0  0  0  0  0  0  0  0  0  0  0
  142.7940  137.5480  152.6660 C   0  0  0  0  0  3  0  0  0  0  0  0
  139.0390  137.9580  152.4370 N   0  0  0  0  0  0  0  0  0  0  0  0
  138.7080  138.1190  153.6280 O   0  0  0  0  0  0  0  0  0  0  0  0
  138.2590  137.9730  151.4770 O   0  0  0  0  0  0  0  0  0  0  0  0
  141.4380  138.0210  154.4540 O   0  0  0  0  0  0  0  0  0  0  0  0
  141.7470  139.3250  154.9270 C   0  0  0  0  0  1  0  0  0  0  0  0
  1  3  1  0  0  0  0
  1  5  1  0  0  0  0
  2  1  2  0  0  0  0
  3  4  1  0  0  0  0
  6  5  1  0  0  0  0
  6  7  1  0  0  0  0
  7  8  1  0  0  0  0
  9  8  1  0  0  0  0
 10  9  1  0  0  0  0
 11 12  1  0  0  0  0
 12 10  1  0  0  0  0
 13 14  1  0  0  0  0
 13  3  1  0  0  0  0
 14 19  1  0  0  0  0
 15 16  1  0  0  0  0
 15 14  2  0  0  0  0
 16 17  2  0  0  0  0
 17 20  1  0  0  0  0
 17 18  1  0  0  0  0
 18 23  1  0  0  0  0
 19 18  2  0  0  0  0
 20 21  2  0  0  0  0
 22 20  2  0  0  0  0
 23 24  1  0  0  0  0
M  END
>  <MODEL>
8

>  <REMARK>
 VINA RESULT:    -6.080      9.291     11.748
 INTER + INTRA:         -10.846
 INTER:                  -9.991
 INTRA:                  -0.856
 UNBOUND:                -0.856
  Name = CHEMBL75961
  13 active torsions:
  status: ('A' for Active; 'I' for Inactive)
    1  A    between atoms: C_1  and  C_2
    2  A    between atoms: C_2  and  C_3
    3  A    between atoms: C_3  and  C_4
    4  A    between atoms: C_4  and  C_5
    5  A    between atoms: C_5  and  C_6
    6  A    between atoms: C_6  and  C_7
    7  A    between atoms: C_7  and  C_8
    8  A    between atoms: C_8  and  C_9
    9  A    between atoms: N_11  and  C_12
   10  A    between atoms: C_12  and  C_13
   11  A    between atoms: C_16  and  N_17
   12  A    between atoms: C_20  and  O_21
   13  A    between atoms: O_21  and  C_22
                            x       y       z     vdW  Elec       q    Type
                         _______ _______ _______ _____ _____    ______ ____

>  <TORSDO>
F 11

>  <SCORE>
-6.080

>  <RMSD_LB>
9.291

>  <RMSD_UB>
11.748

$$$$
CHEMBL75961
 OpenBabel10172500163D

 24 24  0  0  0  0  0  0  0  0999 V2000
  138.5530  137.6890  151.6520 C   0  0  0  0  0  0  0  0  0  0  0  0
  139.7680  137.7500  151.6440 O   0  0  0  0  0  0  0  0  0  0  0  0
  137.7890  137.7510  152.8020 N   0  0  0  0  0  0  0  0  0  0  0  0
  136.8070  137.7130  152.7360 H   0  0  0  0  0  0  0  0  0  0  0  0
  137.7170  137.5230  150.3900 C   0  0  0  0  0  2  0  0  0  0  0  0
  138.2380  136.3820  149.5200 C   0  0  0  0  0  2  0  0  0  0  0  0
  137.3790  135.1180  149.6350 C   0  0  0  0  0  2  0  0  0  0  0  0
  136.0940  135.4180  150.4030 C   0  0  0  0  0  2  0  0  0  0  0  0
  135.8620  134.4070  151.5220 C   0  0  0  0  0  2  0  0  0  0  0  0
  134.4790  133.7710  151.3990 C   0  0  0  0  0  2  0  0  0  0  0  0
  133.2780  133.2570  149.2520 C   0  0  0  0  0  1  0  0  0  0  0  0
  133.7070  134.3510  150.2150 C   0  0  0  0  0  2  0  0  0  0  0  0
  138.4130  137.8700  154.1050 C   0  0  0  0  0  2  0  0  0  0  0  0
  137.6640  137.1380  155.2020 C   0  0  0  0  0  0  0  0  0  0  0  0
  137.9510  137.3630  156.5500 C   0  0  0  0  0  3  0  0  0  0  0  0
  137.2570  136.6730  157.5510 C   0  0  0  0  0  3  0  0  0  0  0  0
  136.2100  135.7850  157.2300 C   0  0  0  0  0  0  0  0  0  0  0  0
  135.8310  135.6100  155.8950 C   0  0  0  0  0  0  0  0  0  0  0  0
  136.5980  136.2680  154.9000 C   0  0  0  0  0  3  0  0  0  0  0  0
  135.6400  135.0420  158.3500 N   0  0  0  0  0  0  0  0  0  0  0  0
  134.4140  135.1560  158.5430 O   0  0  0  0  0  0  0  0  0  0  0  0
  136.4180  134.4220  159.0860 O   0  0  0  0  0  0  0  0  0  0  0  0
  134.8260  134.8770  155.3280 O   0  0  0  0  0  0  0  0  0  0  0  0
  133.7750  135.5080  154.6090 C   0  0  0  0  0  1  0  0  0  0  0  0
  1  3  1  0  0  0  0
  2  1  2  0  0  0  0
  3 13  1  0  0  0  0
  4  3  1  0  0  0  0
  5  1  1  0  0  0  0
  6  7  1  0  0  0  0
  6  5  1  0  0  0  0
  7  8  1  0  0  0  0
  8  9  1  0  0  0  0
 10  9  1  0  0  0  0
 11 12  1  0  0  0  0
 12 10  1  0  0  0  0
 13 14  1  0  0  0  0
 14 15  1  0  0  0  0
 15 16  2  0  0  0  0
 17 16  1  0  0  0  0
 17 20  1  0  0  0  0
 18 17  2  0  0  0  0
 19 14  2  0  0  0  0
 19 18  1  0  0  0  0
 20 21  2  0  0  0  0
 20 22  2  0  0  0  0
 23 18  1  0  0  0  0
 24 23  1  0  0  0  0
M  END
>  <MODEL>
9

>  <REMARK>
 VINA RESULT:    -6.062      4.272      8.645
 INTER + INTRA:         -10.816
 INTER:                  -9.602
 INTRA:                  -1.214
 UNBOUND:                -0.856
  Name = CHEMBL75961
  13 active torsions:
  status: ('A' for Active; 'I' for Inactive)
    1  A    between atoms: C_1  and  C_2
    2  A    between atoms: C_2  and  C_3
    3  A    between atoms: C_3  and  C_4
    4  A    between atoms: C_4  and  C_5
    5  A    between atoms: C_5  and  C_6
    6  A    between atoms: C_6  and  C_7
    7  A    between atoms: C_7  and  C_8
    8  A    between atoms: C_8  and  C_9
    9  A    between atoms: N_11  and  C_12
   10  A    between atoms: C_12  and  C_13
   11  A    between atoms: C_16  and  N_17
   12  A    between atoms: C_20  and  O_21
   13  A    between atoms: O_21  and  C_22
                            x       y       z     vdW  Elec       q    Type
                         _______ _______ _______ _____ _____    ______ ____

>  <TORSDO>
F 11

>  <SCORE>
-6.062

>  <RMSD_LB>
4.272

>  <RMSD_UB>
8.645

$$$$
