CHEMBL5268617
 OpenBabel10172500103D

 38 38  0  0  0  0  0  0  0  0999 V2000
  142.9300  139.0440  154.3250 C   0  0  0  0  0  0  0  0  0  0  0  0
  141.5350  139.0490  154.4920 C   0  0  0  0  0  3  0  0  0  0  0  0
  140.6580  138.5170  153.5480 C   0  0  0  0  0  0  0  0  0  0  0  0
  141.2150  137.9680  152.3960 C   0  0  0  0  0  3  0  0  0  0  0  0
  142.6060  137.9310  152.2170 C   0  0  0  0  0  3  0  0  0  0  0  0
  143.4800  138.4240  153.1930 C   0  0  0  0  0  0  0  0  0  0  0  0
  143.0290  140.1230  156.4110 C   0  0  0  0  0  1  0  0  0  0  0  0
  143.7310  139.6690  155.2530 O   0  0  0  0  0  0  0  0  0  0  0  0
  139.1630  138.5510  153.7540 C   0  0  0  0  0  2  0  0  0  0  0  0
  138.7070  137.7210  154.8490 N   0  0  0  0  0  0  0  0  0  0  0  0
  137.6640  138.1050  155.6490 C   0  0  0  0  0  0  0  0  0  0  0  0
  137.0440  139.1700  155.5080 O   0  0  0  0  0  0  0  0  0  0  0  0
  139.1560  136.8630  155.0220 H   0  0  0  0  0  0  0  0  0  0  0  0
  137.3600  137.0910  156.7340 C   0  0  0  0  0  2  0  0  0  0  0  0
  136.8650  135.7840  156.1350 C   0  0  0  0  0  2  0  0  0  0  0  0
  135.5360  135.9430  155.4080 C   0  0  0  0  0  2  0  0  0  0  0  0
  135.5400  135.0860  154.1420 C   0  0  0  0  0  2  0  0  0  0  0  0
  135.9830  135.8680  152.9440 C   0  0  0  0  0  3  0  0  0  0  0  0
  135.8550  135.4130  151.6880 C   0  0  0  0  0  3  0  0  0  0  0  0
  136.3330  136.1770  150.4810 C   0  0  0  0  0  3  0  0  0  0  0  0
  137.3700  137.2330  150.8720 C   0  0  0  0  0  1  0  0  0  0  0  0
  136.9220  135.2270  149.4390 C   0  0  0  0  0  1  0  0  0  0  0  0
  144.8130  138.2870  152.8780 O   0  0  0  0  0  0  0  0  0  0  0  0
  145.1340  138.5330  151.5110 C   0  0  0  0  0  2  0  0  0  0  0  0
  146.5440  139.0970  151.3730 C   0  0  0  0  0  2  0  0  0  0  0  0
  146.4840  140.4430  150.6410 C   0  0  0  0  0  2  0  0  0  0  0  0
  147.0880  141.5620  151.4800 C   0  0  0  0  0  2  0  0  0  0  0  0
  146.0950  142.1150  152.5070 C   0  0  0  0  0  2  0  0  0  0  0  0
  146.6500  141.9020  153.9120 C   0  0  0  0  0  2  0  0  0  0  0  0
  146.2600  140.6230  154.4640 N   0  0  0  0  0  0  0  0  0  0  0  0
  147.1270  139.6920  154.9090 C   0  0  0  0  0  0  0  0  0  0  0  0
  148.4090  139.7830  154.9390 N   0  0  0  0  0  4  0  0  0  0  0  0
  146.5510  138.5540  155.3230 N   0  0  0  0  0  0  0  0  0  0  0  0
  145.2980  140.4200  154.5170 H   0  0  0  0  0  0  0  0  0  0  0  0
  148.8510  140.6100  154.6400 H   0  0  0  0  0  0  0  0  0  0  0  0
  148.9500  139.0260  155.2620 H   0  0  0  0  0  0  0  0  0  0  0  0
  145.5700  138.4650  155.3080 H   0  0  0  0  0  0  0  0  0  0  0  0
  147.1080  137.8070  155.6430 H   0  0  0  0  0  0  0  0  0  0  0  0
  1  2  1  0  0  0  0
  1  8  1  0  0  0  0
  3  9  1  0  0  0  0
  3  2  2  0  0  0  0
  4  3  1  0  0  0  0
  5  4  2  0  0  0  0
  5  6  1  0  0  0  0
  6  1  2  0  0  0  0
  8  7  1  0  0  0  0
  9 10  1  0  0  0  0
 10 13  1  0  0  0  0
 10 11  1  0  0  0  0
 11 14  1  0  0  0  0
 12 11  2  0  0  0  0
 15 14  1  0  0  0  0
 16 15  1  0  0  0  0
 17 16  1  0  0  0  0
 18 17  1  0  0  0  0
 19 18  2  0  0  0  0
 20 21  1  0  0  0  0
 20 19  1  0  0  0  0
 22 20  1  0  0  0  0
 23  6  1  0  0  0  0
 24 23  1  0  0  0  0
 25 24  1  0  0  0  0
 26 25  1  0  0  0  0
 26 27  1  0  0  0  0
 27 28  1  0  0  0  0
 28 29  1  0  0  0  0
 29 30  1  0  0  0  0
 30 34  1  0  0  0  0
 30 31  1  0  0  0  0
 31 32  2  0  0  0  0
 31 33  1  0  0  0  0
 32 36  1  0  0  0  0
 33 38  1  0  0  0  0
 35 32  1  0  0  0  0
 37 33  1  0  0  0  0
M  END
>  <MODEL>
1

>  <REMARK>
 VINA RESULT:    -7.159      0.000      0.000
 INTER + INTRA:         -16.752
 INTER:                 -13.904
 INTRA:                  -2.849
 UNBOUND:                -2.478
  Name = CHEMBL5268617
  20 active torsions:
  status: ('A' for Active; 'I' for Inactive)
    1  A    between atoms: C_1  and  O_2
    2  A    between atoms: O_2  and  C_3
    3  A    between atoms: C_5  and  C_6
    4  A    between atoms: C_6  and  N_7
    5  A    between atoms: C_8  and  C_10
    6  A    between atoms: C_10  and  C_11
    7  A    between atoms: C_11  and  C_12
    8  A    between atoms: C_12  and  C_13
    9  A    between atoms: C_13  and  C_14
   10  A    between atoms: C_15  and  C_16
   11  A    between atoms: C_16  and  C_17
   12  A    between atoms: C_16  and  C_18
   13  A    between atoms: C_21  and  O_22
   14  A    between atoms: O_22  and  C_23
   15  A    between atoms: C_23  and  C_24
   16  A    between atoms: C_24  and  C_25
   17  A    between atoms: C_25  and  C_26
   18  A    between atoms: C_26  and  C_27
   19  A    between atoms: C_27  and  C_28
   20  A    between atoms: C_28  and  N_29
                            x       y       z     vdW  Elec       q    Type
                         _______ _______ _______ _____ _____    ______ ____

>  <TORSDO>
F 17

>  <SCORE>
-7.159

>  <RMSD_LB>
0.000

>  <RMSD_UB>
0.000

$$$$
CHEMBL5268617
 OpenBabel10172500103D

 38 38  0  0  0  0  0  0  0  0999 V2000
  138.3600  137.3160  155.7110 C   0  0  0  0  0  0  0  0  0  0  0  0
  139.6660  137.8170  155.8440 C   0  0  0  0  0  3  0  0  0  0  0  0
  140.3770  138.3670  154.7790 C   0  0  0  0  0  0  0  0  0  0  0  0
  139.7440  138.4040  153.5390 C   0  0  0  0  0  3  0  0  0  0  0  0
  138.4330  137.9320  153.3860 C   0  0  0  0  0  3  0  0  0  0  0  0
  137.7100  137.4260  154.4730 C   0  0  0  0  0  0  0  0  0  0  0  0
  136.9960  137.5910  157.6060 C   0  0  0  0  0  1  0  0  0  0  0  0
  137.7520  136.7030  156.7830 O   0  0  0  0  0  0  0  0  0  0  0  0
  141.7840  138.8830  154.9540 C   0  0  0  0  0  2  0  0  0  0  0  0
  142.8060  137.9220  154.5930 N   0  0  0  0  0  0  0  0  0  0  0  0
  143.8050  138.2390  153.7120 C   0  0  0  0  0  0  0  0  0  0  0  0
  143.9100  139.3450  153.1600 O   0  0  0  0  0  0  0  0  0  0  0  0
  142.7820  137.0230  154.9910 H   0  0  0  0  0  0  0  0  0  0  0  0
  144.7580  137.0860  153.4740 C   0  0  0  0  0  2  0  0  0  0  0  0
  146.2010  137.5660  153.4560 C   0  0  0  0  0  2  0  0  0  0  0  0
  146.8660  137.4640  154.8230 C   0  0  0  0  0  2  0  0  0  0  0  0
  147.2340  138.8620  155.3180 C   0  0  0  0  0  2  0  0  0  0  0  0
  147.5500  139.7880  154.1850 C   0  0  0  0  0  3  0  0  0  0  0  0
  146.8980  140.9430  153.9830 C   0  0  0  0  0  3  0  0  0  0  0  0
  147.1860  141.8610  152.8230 C   0  0  0  0  0  3  0  0  0  0  0  0
  147.9920  141.1430  151.7380 C   0  0  0  0  0  1  0  0  0  0  0  0
  145.8850  142.4070  152.2330 C   0  0  0  0  0  1  0  0  0  0  0  0
  136.4280  137.0300  154.1620 O   0  0  0  0  0  0  0  0  0  0  0  0
  136.3080  135.6820  153.7160 C   0  0  0  0  0  2  0  0  0  0  0  0
  135.6140  135.6140  152.3600 C   0  0  0  0  0  2  0  0  0  0  0  0
  135.5400  134.1550  151.8980 C   0  0  0  0  0  2  0  0  0  0  0  0
  135.2850  134.0550  150.4000 C   0  0  0  0  0  2  0  0  0  0  0  0
  133.9940  133.2940  150.0810 C   0  0  0  0  0  2  0  0  0  0  0  0
  132.8770  134.2930  149.7950 C   0  0  0  0  0  2  0  0  0  0  0  0
  133.2830  135.3100  148.8510 N   0  0  0  0  0  0  0  0  0  0  0  0
  132.9680  136.6170  148.9600 C   0  0  0  0  0  0  0  0  0  0  0  0
  132.2920  137.1710  149.9020 N   0  0  0  0  0  0  0  0  0  0  0  0
  133.3970  137.3750  147.9410 N   0  0  0  0  0  4  0  0  0  0  0  0
  133.8250  135.0300  148.0780 H   0  0  0  0  0  0  0  0  0  0  0  0
  131.9690  136.6320  150.6590 H   0  0  0  0  0  0  0  0  0  0  0  0
  132.0970  138.1360  149.8670 H   0  0  0  0  0  0  0  0  0  0  0  0
  133.9170  136.9690  147.2100 H   0  0  0  0  0  0  0  0  0  0  0  0
  133.1930  138.3390  147.9230 H   0  0  0  0  0  0  0  0  0  0  0  0
  1  2  1  0  0  0  0
  1  8  1  0  0  0  0
  3  9  1  0  0  0  0
  3  2  2  0  0  0  0
  4  3  1  0  0  0  0
  5  4  2  0  0  0  0
  5  6  1  0  0  0  0
  6  1  2  0  0  0  0
  8  7  1  0  0  0  0
 10  9  1  0  0  0  0
 10 13  1  0  0  0  0
 11 10  1  0  0  0  0
 12 11  2  0  0  0  0
 14 11  1  0  0  0  0
 15 14  1  0  0  0  0
 15 16  1  0  0  0  0
 16 17  1  0  0  0  0
 18 17  1  0  0  0  0
 19 18  2  0  0  0  0
 20 19  1  0  0  0  0
 21 20  1  0  0  0  0
 22 20  1  0  0  0  0
 23  6  1  0  0  0  0
 24 23  1  0  0  0  0
 25 24  1  0  0  0  0
 26 25  1  0  0  0  0
 27 26  1  0  0  0  0
 28 27  1  0  0  0  0
 29 28  1  0  0  0  0
 30 31  1  0  0  0  0
 30 29  1  0  0  0  0
 31 32  1  0  0  0  0
 32 35  1  0  0  0  0
 33 31  2  0  0  0  0
 34 30  1  0  0  0  0
 36 32  1  0  0  0  0
 37 33  1  0  0  0  0
 38 33  1  0  0  0  0
M  END
>  <MODEL>
2

>  <REMARK>
 VINA RESULT:    -6.830      3.170     10.645
 INTER + INTRA:         -16.095
 INTER:                 -14.642
 INTRA:                  -1.453
 UNBOUND:                -2.478
  Name = CHEMBL5268617
  20 active torsions:
  status: ('A' for Active; 'I' for Inactive)
    1  A    between atoms: C_1  and  O_2
    2  A    between atoms: O_2  and  C_3
    3  A    between atoms: C_5  and  C_6
    4  A    between atoms: C_6  and  N_7
    5  A    between atoms: C_8  and  C_10
    6  A    between atoms: C_10  and  C_11
    7  A    between atoms: C_11  and  C_12
    8  A    between atoms: C_12  and  C_13
    9  A    between atoms: C_13  and  C_14
   10  A    between atoms: C_15  and  C_16
   11  A    between atoms: C_16  and  C_17
   12  A    between atoms: C_16  and  C_18
   13  A    between atoms: C_21  and  O_22
   14  A    between atoms: O_22  and  C_23
   15  A    between atoms: C_23  and  C_24
   16  A    between atoms: C_24  and  C_25
   17  A    between atoms: C_25  and  C_26
   18  A    between atoms: C_26  and  C_27
   19  A    between atoms: C_27  and  C_28
   20  A    between atoms: C_28  and  N_29
                            x       y       z     vdW  Elec       q    Type
                         _______ _______ _______ _____ _____    ______ ____

>  <TORSDO>
F 17

>  <SCORE>
-6.830

>  <RMSD_LB>
3.170

>  <RMSD_UB>
10.645

$$$$
CHEMBL5268617
 OpenBabel10172500103D

 38 38  0  0  0  0  0  0  0  0999 V2000
  140.9480  137.9690  151.8730 C   0  0  0  0  0  0  0  0  0  0  0  0
  142.3010  137.5900  151.8780 C   0  0  0  0  0  3  0  0  0  0  0  0
  143.1140  137.7020  153.0040 C   0  0  0  0  0  0  0  0  0  0  0  0
  142.5360  138.2220  154.1610 C   0  0  0  0  0  3  0  0  0  0  0  0
  141.1820  138.5850  154.1870 C   0  0  0  0  0  3  0  0  0  0  0  0
  140.3620  138.4230  153.0640 C   0  0  0  0  0  0  0  0  0  0  0  0
  140.5560  136.8040  149.8700 C   0  0  0  0  0  1  0  0  0  0  0  0
  140.2290  137.9180  150.7010 O   0  0  0  0  0  0  0  0  0  0  0  0
  144.5680  137.2990  152.9700 C   0  0  0  0  0  2  0  0  0  0  0  0
  145.4120  138.0900  153.8420 N   0  0  0  0  0  0  0  0  0  0  0  0
  146.4830  137.5370  154.4920 C   0  0  0  0  0  0  0  0  0  0  0  0
  146.8050  136.3430  154.3950 O   0  0  0  0  0  0  0  0  0  0  0  0
  145.2120  139.0450  153.9690 H   0  0  0  0  0  0  0  0  0  0  0  0
  147.2210  138.5410  155.3540 C   0  0  0  0  0  2  0  0  0  0  0  0
  147.2010  139.9230  154.7200 C   0  0  0  0  0  2  0  0  0  0  0  0
  148.5550  140.3210  154.1480 C   0  0  0  0  0  2  0  0  0  0  0  0
  148.5260  141.7930  153.7390 C   0  0  0  0  0  2  0  0  0  0  0  0
  147.7360  142.0060  152.4850 C   0  0  0  0  0  3  0  0  0  0  0  0
  146.4240  142.2880  152.4880 C   0  0  0  0  0  3  0  0  0  0  0  0
  145.6160  142.4660  151.2290 C   0  0  0  0  0  3  0  0  0  0  0  0
  146.5230  142.7290  150.0240 C   0  0  0  0  0  1  0  0  0  0  0  0
  144.7450  141.2370  150.9690 C   0  0  0  0  0  1  0  0  0  0  0  0
  139.0530  138.8000  153.2630 O   0  0  0  0  0  0  0  0  0  0  0  0
  138.1570  137.7290  153.5520 C   0  0  0  0  0  2  0  0  0  0  0  0
  137.7160  137.7640  155.0110 C   0  0  0  0  0  2  0  0  0  0  0  0
  136.6460  136.6920  155.2450 C   0  0  0  0  0  2  0  0  0  0  0  0
  136.1770  136.0770  153.9330 C   0  0  0  0  0  2  0  0  0  0  0  0
  135.3550  134.8020  154.1520 C   0  0  0  0  0  2  0  0  0  0  0  0
  135.3170  133.9970  152.8560 C   0  0  0  0  0  2  0  0  0  0  0  0
  133.9690  133.8250  152.3620 N   0  0  0  0  0  0  0  0  0  0  0  0
  133.3700  134.6570  151.4850 C   0  0  0  0  0  0  0  0  0  0  0  0
  133.8830  135.7000  150.9370 N   0  0  0  0  0  4  0  0  0  0  0  0
  132.0960  134.3430  151.2090 N   0  0  0  0  0  0  0  0  0  0  0  0
  133.4550  133.0510  152.6870 H   0  0  0  0  0  0  0  0  0  0  0  0
  134.8170  135.9470  151.1270 H   0  0  0  0  0  0  0  0  0  0  0  0
  133.3430  136.2530  150.3270 H   0  0  0  0  0  0  0  0  0  0  0  0
  131.6850  133.5470  151.6180 H   0  0  0  0  0  0  0  0  0  0  0  0
  131.5710  134.9080  150.5960 H   0  0  0  0  0  0  0  0  0  0  0  0
  1  2  2  0  0  0  0
  1  6  1  0  0  0  0
  2  3  1  0  0  0  0
  3  4  2  0  0  0  0
  4  5  1  0  0  0  0
  6 23  1  0  0  0  0
  6  5  2  0  0  0  0
  7  8  1  0  0  0  0
  8  1  1  0  0  0  0
  9  3  1  0  0  0  0
  9 10  1  0  0  0  0
 10 13  1  0  0  0  0
 10 11  1  0  0  0  0
 11 14  1  0  0  0  0
 12 11  2  0  0  0  0
 15 14  1  0  0  0  0
 16 15  1  0  0  0  0
 17 16  1  0  0  0  0
 18 19  2  0  0  0  0
 18 17  1  0  0  0  0
 20 19  1  0  0  0  0
 21 20  1  0  0  0  0
 22 20  1  0  0  0  0
 23 24  1  0  0  0  0
 24 25  1  0  0  0  0
 25 26  1  0  0  0  0
 27 28  1  0  0  0  0
 27 26  1  0  0  0  0
 29 28  1  0  0  0  0
 30 34  1  0  0  0  0
 30 29  1  0  0  0  0
 31 30  1  0  0  0  0
 32 35  1  0  0  0  0
 32 31  2  0  0  0  0
 33 31  1  0  0  0  0
 33 37  1  0  0  0  0
 36 32  1  0  0  0  0
 38 33  1  0  0  0  0
M  END
>  <MODEL>
3

>  <REMARK>
 VINA RESULT:    -6.777      2.833     10.398
 INTER + INTRA:         -15.989
 INTER:                 -14.592
 INTRA:                  -1.397
 UNBOUND:                -2.478
  Name = CHEMBL5268617
  20 active torsions:
  status: ('A' for Active; 'I' for Inactive)
    1  A    between atoms: C_1  and  O_2
    2  A    between atoms: O_2  and  C_3
    3  A    between atoms: C_5  and  C_6
    4  A    between atoms: C_6  and  N_7
    5  A    between atoms: C_8  and  C_10
    6  A    between atoms: C_10  and  C_11
    7  A    between atoms: C_11  and  C_12
    8  A    between atoms: C_12  and  C_13
    9  A    between atoms: C_13  and  C_14
   10  A    between atoms: C_15  and  C_16
   11  A    between atoms: C_16  and  C_17
   12  A    between atoms: C_16  and  C_18
   13  A    between atoms: C_21  and  O_22
   14  A    between atoms: O_22  and  C_23
   15  A    between atoms: C_23  and  C_24
   16  A    between atoms: C_24  and  C_25
   17  A    between atoms: C_25  and  C_26
   18  A    between atoms: C_26  and  C_27
   19  A    between atoms: C_27  and  C_28
   20  A    between atoms: C_28  and  N_29
                            x       y       z     vdW  Elec       q    Type
                         _______ _______ _______ _____ _____    ______ ____

>  <TORSDO>
F 17

>  <SCORE>
-6.777

>  <RMSD_LB>
2.833

>  <RMSD_UB>
10.398

$$$$
CHEMBL5268617
 OpenBabel10172500103D

 38 38  0  0  0  0  0  0  0  0999 V2000
  139.8010  137.7250  152.2210 C   0  0  0  0  0  0  0  0  0  0  0  0
  138.4770  137.5430  151.7850 C   0  0  0  0  0  3  0  0  0  0  0  0
  138.1560  137.1080  150.5010 C   0  0  0  0  0  0  0  0  0  0  0  0
  139.2130  136.8560  149.6290 C   0  0  0  0  0  3  0  0  0  0  0  0
  140.5430  137.0070  150.0480 C   0  0  0  0  0  3  0  0  0  0  0  0
  140.8550  137.3980  151.3550 C   0  0  0  0  0  0  0  0  0  0  0  0
  139.2240  139.3680  153.7990 C   0  0  0  0  0  1  0  0  0  0  0  0
  140.0420  138.2450  153.4720 O   0  0  0  0  0  0  0  0  0  0  0  0
  136.7230  136.9370  150.0620 C   0  0  0  0  0  2  0  0  0  0  0  0
  135.9060  136.2120  151.0120 N   0  0  0  0  0  0  0  0  0  0  0  0
  134.5730  135.9930  150.7860 C   0  0  0  0  0  0  0  0  0  0  0  0
  133.9710  136.3920  149.7780 O   0  0  0  0  0  0  0  0  0  0  0  0
  136.3170  135.8690  151.8380 H   0  0  0  0  0  0  0  0  0  0  0  0
  133.9120  135.2210  151.9110 C   0  0  0  0  0  2  0  0  0  0  0  0
  134.8250  134.1190  152.4260 C   0  0  0  0  0  2  0  0  0  0  0  0
  134.6070  133.8270  153.9050 C   0  0  0  0  0  2  0  0  0  0  0  0
  134.2710  135.1250  154.6390 C   0  0  0  0  0  2  0  0  0  0  0  0
  135.4160  135.6000  155.4790 C   0  0  0  0  0  3  0  0  0  0  0  0
  136.4570  136.2800  154.9750 C   0  0  0  0  0  3  0  0  0  0  0  0
  137.6300  136.7290  155.8070 C   0  0  0  0  0  3  0  0  0  0  0  0
  137.3080  138.0210  156.5630 C   0  0  0  0  0  1  0  0  0  0  0  0
  138.0410  135.6350  156.7930 C   0  0  0  0  0  1  0  0  0  0  0  0
  142.2050  137.4720  151.6140 O   0  0  0  0  0  0  0  0  0  0  0  0
  143.0220  136.6580  150.7770 C   0  0  0  0  0  2  0  0  0  0  0  0
  144.2010  137.4510  150.2240 C   0  0  0  0  0  2  0  0  0  0  0  0
  145.1240  137.8620  151.3780 C   0  0  0  0  0  2  0  0  0  0  0  0
  145.6530  136.6470  152.1290 C   0  0  0  0  0  2  0  0  0  0  0  0
  145.6360  136.8520  153.6470 C   0  0  0  0  0  2  0  0  0  0  0  0
  145.4100  138.3290  153.9550 C   0  0  0  0  0  2  0  0  0  0  0  0
  144.3180  138.5310  154.8820 N   0  0  0  0  0  0  0  0  0  0  0  0
  143.1620  139.1530  154.5700 C   0  0  0  0  0  0  0  0  0  0  0  0
  142.8330  139.6400  153.4270 N   0  0  0  0  0  4  0  0  0  0  0  0
  142.3120  139.2850  155.5970 N   0  0  0  0  0  0  0  0  0  0  0  0
  144.4250  138.1920  155.8000 H   0  0  0  0  0  0  0  0  0  0  0  0
  143.4440  139.5530  152.6600 H   0  0  0  0  0  0  0  0  0  0  0  0
  141.9680  140.1000  153.3170 H   0  0  0  0  0  0  0  0  0  0  0  0
  142.5460  138.9180  156.4810 H   0  0  0  0  0  0  0  0  0  0  0  0
  141.4520  139.7470  155.4690 H   0  0  0  0  0  0  0  0  0  0  0  0
  1  8  1  0  0  0  0
  2  1  1  0  0  0  0
  3  2  2  0  0  0  0
  4  5  2  0  0  0  0
  4  3  1  0  0  0  0
  5  6  1  0  0  0  0
  6 23  1  0  0  0  0
  6  1  2  0  0  0  0
  8  7  1  0  0  0  0
  9  3  1  0  0  0  0
  9 10  1  0  0  0  0
 10 13  1  0  0  0  0
 11 10  1  0  0  0  0
 11 14  1  0  0  0  0
 12 11  2  0  0  0  0
 14 15  1  0  0  0  0
 15 16  1  0  0  0  0
 16 17  1  0  0  0  0
 17 18  1  0  0  0  0
 19 18  2  0  0  0  0
 19 20  1  0  0  0  0
 20 21  1  0  0  0  0
 20 22  1  0  0  0  0
 24 23  1  0  0  0  0
 25 24  1  0  0  0  0
 25 26  1  0  0  0  0
 26 27  1  0  0  0  0
 27 28  1  0  0  0  0
 28 29  1  0  0  0  0
 29 30  1  0  0  0  0
 30 34  1  0  0  0  0
 31 30  1  0  0  0  0
 31 33  1  0  0  0  0
 32 31  2  0  0  0  0
 33 37  1  0  0  0  0
 35 32  1  0  0  0  0
 36 32  1  0  0  0  0
 38 33  1  0  0  0  0
M  END
>  <MODEL>
4

>  <REMARK>
 VINA RESULT:    -6.705      2.477      4.510
 INTER + INTRA:         -15.846
 INTER:                 -12.868
 INTRA:                  -2.978
 UNBOUND:                -2.478
  Name = CHEMBL5268617
  20 active torsions:
  status: ('A' for Active; 'I' for Inactive)
    1  A    between atoms: C_1  and  O_2
    2  A    between atoms: O_2  and  C_3
    3  A    between atoms: C_5  and  C_6
    4  A    between atoms: C_6  and  N_7
    5  A    between atoms: C_8  and  C_10
    6  A    between atoms: C_10  and  C_11
    7  A    between atoms: C_11  and  C_12
    8  A    between atoms: C_12  and  C_13
    9  A    between atoms: C_13  and  C_14
   10  A    between atoms: C_15  and  C_16
   11  A    between atoms: C_16  and  C_17
   12  A    between atoms: C_16  and  C_18
   13  A    between atoms: C_21  and  O_22
   14  A    between atoms: O_22  and  C_23
   15  A    between atoms: C_23  and  C_24
   16  A    between atoms: C_24  and  C_25
   17  A    between atoms: C_25  and  C_26
   18  A    between atoms: C_26  and  C_27
   19  A    between atoms: C_27  and  C_28
   20  A    between atoms: C_28  and  N_29
                            x       y       z     vdW  Elec       q    Type
                         _______ _______ _______ _____ _____    ______ ____

>  <TORSDO>
F 17

>  <SCORE>
-6.705

>  <RMSD_LB>
2.477

>  <RMSD_UB>
4.510

$$$$
CHEMBL5268617
 OpenBabel10172500103D

 38 38  0  0  0  0  0  0  0  0999 V2000
  140.2090  137.6600  150.4930 C   0  0  0  0  0  0  0  0  0  0  0  0
  139.5500  138.1790  151.6190 C   0  0  0  0  0  3  0  0  0  0  0  0
  140.1550  138.2800  152.8710 C   0  0  0  0  0  0  0  0  0  0  0  0
  141.4700  137.8330  152.9830 C   0  0  0  0  0  3  0  0  0  0  0  0
  142.1560  137.3330  151.8680 C   0  0  0  0  0  3  0  0  0  0  0  0
  141.5550  137.2810  150.6040 C   0  0  0  0  0  0  0  0  0  0  0  0
  138.7090  136.3310  149.2650 C   0  0  0  0  0  1  0  0  0  0  0  0
  139.5220  137.5040  149.3110 O   0  0  0  0  0  0  0  0  0  0  0  0
  139.4120  138.8300  154.0630 C   0  0  0  0  0  2  0  0  0  0  0  0
  138.8710  137.8070  154.9350 N   0  0  0  0  0  0  0  0  0  0  0  0
  137.6510  137.9570  155.5390 C   0  0  0  0  0  0  0  0  0  0  0  0
  136.9310  138.9580  155.3980 O   0  0  0  0  0  0  0  0  0  0  0  0
  139.3900  136.9880  155.0950 H   0  0  0  0  0  0  0  0  0  0  0  0
  137.2840  136.7720  156.4090 C   0  0  0  0  0  2  0  0  0  0  0  0
  136.0200  136.0960  155.9050 C   0  0  0  0  0  2  0  0  0  0  0  0
  136.2020  135.4780  154.5240 C   0  0  0  0  0  2  0  0  0  0  0  0
  134.9980  134.5950  154.1960 C   0  0  0  0  0  2  0  0  0  0  0  0
  134.7540  134.5150  152.7210 C   0  0  0  0  0  3  0  0  0  0  0  0
  133.7920  135.2160  152.1010 C   0  0  0  0  0  3  0  0  0  0  0  0
  133.5170  135.1120  150.6230 C   0  0  0  0  0  3  0  0  0  0  0  0
  132.5900  133.9330  150.3170 C   0  0  0  0  0  1  0  0  0  0  0  0
  132.9040  136.4100  150.0960 C   0  0  0  0  0  1  0  0  0  0  0  0
  142.3730  136.7900  149.6110 O   0  0  0  0  0  0  0  0  0  0  0  0
  143.4670  136.0010  150.0700 C   0  0  0  0  0  2  0  0  0  0  0  0
  144.7810  136.4840  149.4660 C   0  0  0  0  0  2  0  0  0  0  0  0
  145.6110  137.1840  150.5490 C   0  0  0  0  0  2  0  0  0  0  0  0
  145.9760  136.2280  151.6770 C   0  0  0  0  0  2  0  0  0  0  0  0
  146.4960  136.9660  152.9150 C   0  0  0  0  0  2  0  0  0  0  0  0
  145.4650  136.8620  154.0350 C   0  0  0  0  0  2  0  0  0  0  0  0
  144.8070  138.1250  154.2880 N   0  0  0  0  0  0  0  0  0  0  0  0
  145.3400  139.1260  155.0180 C   0  0  0  0  0  0  0  0  0  0  0  0
  146.4950  139.1400  155.5810 N   0  0  0  0  0  0  0  0  0  0  0  0
  144.5320  140.1840  155.1760 N   0  0  0  0  0  4  0  0  0  0  0  0
  143.9120  138.2630  153.9010 H   0  0  0  0  0  0  0  0  0  0  0  0
  147.1030  138.3730  155.4760 H   0  0  0  0  0  0  0  0  0  0  0  0
  146.7730  139.9190  156.1160 H   0  0  0  0  0  0  0  0  0  0  0  0
  143.6430  140.1930  154.7520 H   0  0  0  0  0  0  0  0  0  0  0  0
  144.8270  140.9540  155.7150 H   0  0  0  0  0  0  0  0  0  0  0  0
  1  6  2  0  0  0  0
  1  2  1  0  0  0  0
  2  3  2  0  0  0  0
  3  4  1  0  0  0  0
  3  9  1  0  0  0  0
  5  4  2  0  0  0  0
  6  5  1  0  0  0  0
  7  8  1  0  0  0  0
  8  1  1  0  0  0  0
  9 10  1  0  0  0  0
 10 13  1  0  0  0  0
 10 11  1  0  0  0  0
 11 14  1  0  0  0  0
 12 11  2  0  0  0  0
 15 14  1  0  0  0  0
 16 15  1  0  0  0  0
 17 16  1  0  0  0  0
 18 17  1  0  0  0  0
 19 18  2  0  0  0  0
 20 19  1  0  0  0  0
 21 20  1  0  0  0  0
 22 20  1  0  0  0  0
 23 24  1  0  0  0  0
 23  6  1  0  0  0  0
 25 24  1  0  0  0  0
 25 26  1  0  0  0  0
 26 27  1  0  0  0  0
 27 28  1  0  0  0  0
 28 29  1  0  0  0  0
 29 30  1  0  0  0  0
 30 31  1  0  0  0  0
 31 33  2  0  0  0  0
 31 32  1  0  0  0  0
 32 36  1  0  0  0  0
 33 38  1  0  0  0  0
 34 30  1  0  0  0  0
 35 32  1  0  0  0  0
 37 33  1  0  0  0  0
M  END
>  <MODEL>
5

>  <REMARK>
 VINA RESULT:    -6.568      2.431      3.650
 INTER + INTRA:         -15.573
 INTER:                 -13.946
 INTRA:                  -1.628
 UNBOUND:                -2.478
  Name = CHEMBL5268617
  20 active torsions:
  status: ('A' for Active; 'I' for Inactive)
    1  A    between atoms: C_1  and  O_2
    2  A    between atoms: O_2  and  C_3
    3  A    between atoms: C_5  and  C_6
    4  A    between atoms: C_6  and  N_7
    5  A    between atoms: C_8  and  C_10
    6  A    between atoms: C_10  and  C_11
    7  A    between atoms: C_11  and  C_12
    8  A    between atoms: C_12  and  C_13
    9  A    between atoms: C_13  and  C_14
   10  A    between atoms: C_15  and  C_16
   11  A    between atoms: C_16  and  C_17
   12  A    between atoms: C_16  and  C_18
   13  A    between atoms: C_21  and  O_22
   14  A    between atoms: O_22  and  C_23
   15  A    between atoms: C_23  and  C_24
   16  A    between atoms: C_24  and  C_25
   17  A    between atoms: C_25  and  C_26
   18  A    between atoms: C_26  and  C_27
   19  A    between atoms: C_27  and  C_28
   20  A    between atoms: C_28  and  N_29
                            x       y       z     vdW  Elec       q    Type
                         _______ _______ _______ _____ _____    ______ ____

>  <TORSDO>
F 17

>  <SCORE>
-6.568

>  <RMSD_LB>
2.431

>  <RMSD_UB>
3.650

$$$$
CHEMBL5268617
 OpenBabel10172500103D

 38 38  0  0  0  0  0  0  0  0999 V2000
  137.7790  137.1540  156.4150 C   0  0  0  0  0  0  0  0  0  0  0  0
  139.0970  137.6360  156.4810 C   0  0  0  0  0  3  0  0  0  0  0  0
  139.8160  138.0300  155.3530 C   0  0  0  0  0  0  0  0  0  0  0  0
  139.1780  137.9240  154.1190 C   0  0  0  0  0  3  0  0  0  0  0  0
  137.8550  137.4670  154.0310 C   0  0  0  0  0  3  0  0  0  0  0  0
  137.1250  137.1210  155.1740 C   0  0  0  0  0  0  0  0  0  0  0  0
  136.5940  137.7290  158.3610 C   0  0  0  0  0  1  0  0  0  0  0  0
  137.1620  136.6960  157.5570 O   0  0  0  0  0  0  0  0  0  0  0  0
  141.2350  138.5300  155.4590 C   0  0  0  0  0  2  0  0  0  0  0  0
  142.1490  137.8870  154.5370 N   0  0  0  0  0  0  0  0  0  0  0  0
  143.3390  138.4690  154.1890 C   0  0  0  0  0  0  0  0  0  0  0  0
  143.7190  139.5690  154.6200 O   0  0  0  0  0  0  0  0  0  0  0  0
  141.9100  137.0140  154.1520 H   0  0  0  0  0  0  0  0  0  0  0  0
  144.1330  137.6290  153.2100 C   0  0  0  0  0  2  0  0  0  0  0  0
  143.3560  137.4140  151.9210 C   0  0  0  0  0  2  0  0  0  0  0  0
  143.9780  138.1430  150.7370 C   0  0  0  0  0  2  0  0  0  0  0  0
  143.1670  139.4010  150.4270 C   0  0  0  0  0  2  0  0  0  0  0  0
  144.0160  140.6330  150.4730 C   0  0  0  0  0  3  0  0  0  0  0  0
  144.7620  140.9650  151.5380 C   0  0  0  0  0  3  0  0  0  0  0  0
  145.5890  142.2230  151.6060 C   0  0  0  0  0  3  0  0  0  0  0  0
  146.3570  142.3070  152.9270 C   0  0  0  0  0  1  0  0  0  0  0  0
  146.5630  142.2920  150.4300 C   0  0  0  0  0  1  0  0  0  0  0  0
  135.8330  136.7200  154.9180 O   0  0  0  0  0  0  0  0  0  0  0  0
  135.6820  135.8730  153.7820 C   0  0  0  0  0  2  0  0  0  0  0  0
  134.4300  135.0120  153.9040 C   0  0  0  0  0  2  0  0  0  0  0  0
  134.2430  134.2000  152.6170 C   0  0  0  0  0  2  0  0  0  0  0  0
  135.4850  134.2550  151.7380 C   0  0  0  0  0  2  0  0  0  0  0  0
  135.1560  134.0420  150.2570 C   0  0  0  0  0  2  0  0  0  0  0  0
  133.6440  134.1070  150.0600 C   0  0  0  0  0  2  0  0  0  0  0  0
  133.2660  135.0740  149.0540 N   0  0  0  0  0  0  0  0  0  0  0  0
  132.8690  136.3350  149.3230 C   0  0  0  0  0  0  0  0  0  0  0  0
  132.7800  136.8840  150.4810 N   0  0  0  0  0  0  0  0  0  0  0  0
  132.5070  137.0420  148.2420 N   0  0  0  0  0  4  0  0  0  0  0  0
  133.3020  134.7940  148.1110 H   0  0  0  0  0  0  0  0  0  0  0  0
  133.0410  136.3820  151.2860 H   0  0  0  0  0  0  0  0  0  0  0  0
  132.4500  137.8090  150.5640 H   0  0  0  0  0  0  0  0  0  0  0  0
  132.5690  136.6380  147.3460 H   0  0  0  0  0  0  0  0  0  0  0  0
  132.1810  137.9650  148.3440 H   0  0  0  0  0  0  0  0  0  0  0  0
  1  2  1  0  0  0  0
  1  8  1  0  0  0  0
  3  9  1  0  0  0  0
  3  2  2  0  0  0  0
  4  3  1  0  0  0  0
  5  4  2  0  0  0  0
  5  6  1  0  0  0  0
  6  1  2  0  0  0  0
  8  7  1  0  0  0  0
 10  9  1  0  0  0  0
 11 10  1  0  0  0  0
 11 12  2  0  0  0  0
 13 10  1  0  0  0  0
 14 11  1  0  0  0  0
 15 14  1  0  0  0  0
 16 15  1  0  0  0  0
 17 18  1  0  0  0  0
 17 16  1  0  0  0  0
 18 19  2  0  0  0  0
 19 20  1  0  0  0  0
 20 21  1  0  0  0  0
 22 20  1  0  0  0  0
 23  6  1  0  0  0  0
 24 25  1  0  0  0  0
 24 23  1  0  0  0  0
 26 25  1  0  0  0  0
 27 26  1  0  0  0  0
 28 27  1  0  0  0  0
 29 28  1  0  0  0  0
 30 31  1  0  0  0  0
 30 29  1  0  0  0  0
 31 32  1  0  0  0  0
 32 36  1  0  0  0  0
 32 35  1  0  0  0  0
 33 38  1  0  0  0  0
 33 31  2  0  0  0  0
 34 30  1  0  0  0  0
 37 33  1  0  0  0  0
M  END
>  <MODEL>
6

>  <REMARK>
 VINA RESULT:    -6.541      3.131     10.307
 INTER + INTRA:         -15.519
 INTER:                 -13.942
 INTRA:                  -1.577
 UNBOUND:                -2.478
  Name = CHEMBL5268617
  20 active torsions:
  status: ('A' for Active; 'I' for Inactive)
    1  A    between atoms: C_1  and  O_2
    2  A    between atoms: O_2  and  C_3
    3  A    between atoms: C_5  and  C_6
    4  A    between atoms: C_6  and  N_7
    5  A    between atoms: C_8  and  C_10
    6  A    between atoms: C_10  and  C_11
    7  A    between atoms: C_11  and  C_12
    8  A    between atoms: C_12  and  C_13
    9  A    between atoms: C_13  and  C_14
   10  A    between atoms: C_15  and  C_16
   11  A    between atoms: C_16  and  C_17
   12  A    between atoms: C_16  and  C_18
   13  A    between atoms: C_21  and  O_22
   14  A    between atoms: O_22  and  C_23
   15  A    between atoms: C_23  and  C_24
   16  A    between atoms: C_24  and  C_25
   17  A    between atoms: C_25  and  C_26
   18  A    between atoms: C_26  and  C_27
   19  A    between atoms: C_27  and  C_28
   20  A    between atoms: C_28  and  N_29
                            x       y       z     vdW  Elec       q    Type
                         _______ _______ _______ _____ _____    ______ ____

>  <TORSDO>
F 17

>  <SCORE>
-6.541

>  <RMSD_LB>
3.131

>  <RMSD_UB>
10.307

$$$$
CHEMBL5268617
 OpenBabel10172500103D

 38 38  0  0  0  0  0  0  0  0999 V2000
  140.3400  138.2830  153.6930 C   0  0  0  0  0  0  0  0  0  0  0  0
  139.3050  138.1310  152.7560 C   0  0  0  0  0  3  0  0  0  0  0  0
  139.5200  137.6670  151.4590 C   0  0  0  0  0  0  0  0  0  0  0  0
  140.8290  137.3520  151.1020 C   0  0  0  0  0  3  0  0  0  0  0  0
  141.8760  137.4720  152.0280 C   0  0  0  0  0  3  0  0  0  0  0  0
  141.6410  137.8940  153.3420 C   0  0  0  0  0  0  0  0  0  0  0  0
  139.7500  137.8740  155.9310 C   0  0  0  0  0  1  0  0  0  0  0  0
  140.0710  138.8340  154.9250 O   0  0  0  0  0  0  0  0  0  0  0  0
  138.3860  137.5300  150.4730 C   0  0  0  0  0  2  0  0  0  0  0  0
  137.1440  137.0850  151.0720 N   0  0  0  0  0  0  0  0  0  0  0  0
  136.4280  136.0470  150.5400 C   0  0  0  0  0  0  0  0  0  0  0  0
  136.7710  135.4220  149.5250 O   0  0  0  0  0  0  0  0  0  0  0  0
  136.8090  137.5380  151.8780 H   0  0  0  0  0  0  0  0  0  0  0  0
  135.1620  135.7550  151.3200 C   0  0  0  0  0  2  0  0  0  0  0  0
  135.2150  134.3700  151.9470 C   0  0  0  0  0  2  0  0  0  0  0  0
  135.5740  134.4150  153.4270 C   0  0  0  0  0  2  0  0  0  0  0  0
  135.2750  135.8060  153.9850 C   0  0  0  0  0  2  0  0  0  0  0  0
  136.1550  136.1370  155.1500 C   0  0  0  0  0  3  0  0  0  0  0  0
  135.9780  135.6090  156.3710 C   0  0  0  0  0  3  0  0  0  0  0  0
  136.8370  135.9660  157.5570 C   0  0  0  0  0  3  0  0  0  0  0  0
  136.7070  137.4520  157.9030 C   0  0  0  0  0  1  0  0  0  0  0  0
  136.4640  135.1130  158.7690 C   0  0  0  0  0  1  0  0  0  0  0  0
  142.7690  137.9310  154.1320 O   0  0  0  0  0  0  0  0  0  0  0  0
  143.4340  139.1910  154.1680 C   0  0  0  0  0  2  0  0  0  0  0  0
  144.9480  139.0110  154.1660 C   0  0  0  0  0  2  0  0  0  0  0  0
  145.3500  138.0960  153.0030 C   0  0  0  0  0  2  0  0  0  0  0  0
  146.5270  137.2050  153.3750 C   0  0  0  0  0  2  0  0  0  0  0  0
  147.7440  137.4470  152.4770 C   0  0  0  0  0  2  0  0  0  0  0  0
  148.9250  137.8910  153.3360 C   0  0  0  0  0  2  0  0  0  0  0  0
  148.9740  139.3280  153.4920 N   0  0  0  0  0  0  0  0  0  0  0  0
  148.5300  139.9890  154.5810 C   0  0  0  0  0  0  0  0  0  0  0  0
  148.0220  139.4720  155.6420 N   0  0  0  0  0  0  0  0  0  0  0  0
  148.6160  141.3240  154.4890 N   0  0  0  0  0  4  0  0  0  0  0  0
  149.3570  139.8580  152.7560 H   0  0  0  0  0  0  0  0  0  0  0  0
  147.9500  138.4940  155.7290 H   0  0  0  0  0  0  0  0  0  0  0  0
  147.7040  140.0550  156.3700 H   0  0  0  0  0  0  0  0  0  0  0  0
  149.0030  141.7380  153.6840 H   0  0  0  0  0  0  0  0  0  0  0  0
  148.2930  141.8900  155.2280 H   0  0  0  0  0  0  0  0  0  0  0  0
  1  8  1  0  0  0  0
  2  1  2  0  0  0  0
  3  2  1  0  0  0  0
  4  3  2  0  0  0  0
  4  5  1  0  0  0  0
  5  6  2  0  0  0  0
  6  1  1  0  0  0  0
  6 23  1  0  0  0  0
  8  7  1  0  0  0  0
  9 10  1  0  0  0  0
  9  3  1  0  0  0  0
 10 13  1  0  0  0  0
 11 10  1  0  0  0  0
 11 14  1  0  0  0  0
 12 11  2  0  0  0  0
 14 15  1  0  0  0  0
 15 16  1  0  0  0  0
 16 17  1  0  0  0  0
 17 18  1  0  0  0  0
 18 19  2  0  0  0  0
 19 20  1  0  0  0  0
 20 21  1  0  0  0  0
 20 22  1  0  0  0  0
 23 24  1  0  0  0  0
 25 24  1  0  0  0  0
 26 27  1  0  0  0  0
 26 25  1  0  0  0  0
 28 29  1  0  0  0  0
 28 27  1  0  0  0  0
 29 30  1  0  0  0  0
 30 31  1  0  0  0  0
 31 32  1  0  0  0  0
 32 35  1  0  0  0  0
 32 36  1  0  0  0  0
 33 31  2  0  0  0  0
 33 38  1  0  0  0  0
 34 30  1  0  0  0  0
 37 33  1  0  0  0  0
M  END
>  <MODEL>
7

>  <REMARK>
 VINA RESULT:    -6.535      2.162      4.273
 INTER + INTRA:         -15.508
 INTER:                 -13.815
 INTRA:                  -1.693
 UNBOUND:                -2.478
  Name = CHEMBL5268617
  20 active torsions:
  status: ('A' for Active; 'I' for Inactive)
    1  A    between atoms: C_1  and  O_2
    2  A    between atoms: O_2  and  C_3
    3  A    between atoms: C_5  and  C_6
    4  A    between atoms: C_6  and  N_7
    5  A    between atoms: C_8  and  C_10
    6  A    between atoms: C_10  and  C_11
    7  A    between atoms: C_11  and  C_12
    8  A    between atoms: C_12  and  C_13
    9  A    between atoms: C_13  and  C_14
   10  A    between atoms: C_15  and  C_16
   11  A    between atoms: C_16  and  C_17
   12  A    between atoms: C_16  and  C_18
   13  A    between atoms: C_21  and  O_22
   14  A    between atoms: O_22  and  C_23
   15  A    between atoms: C_23  and  C_24
   16  A    between atoms: C_24  and  C_25
   17  A    between atoms: C_25  and  C_26
   18  A    between atoms: C_26  and  C_27
   19  A    between atoms: C_27  and  C_28
   20  A    between atoms: C_28  and  N_29
                            x       y       z     vdW  Elec       q    Type
                         _______ _______ _______ _____ _____    ______ ____

>  <TORSDO>
F 17

>  <SCORE>
-6.535

>  <RMSD_LB>
2.162

>  <RMSD_UB>
4.273

$$$$
CHEMBL5268617
 OpenBabel10172500103D

 38 38  0  0  0  0  0  0  0  0999 V2000
  140.6430  137.0250  150.2990 C   0  0  0  0  0  0  0  0  0  0  0  0
  139.5900  137.4040  151.1480 C   0  0  0  0  0  3  0  0  0  0  0  0
  139.7910  137.8250  152.4620 C   0  0  0  0  0  0  0  0  0  0  0  0
  141.1030  137.8550  152.9290 C   0  0  0  0  0  3  0  0  0  0  0  0
  142.1720  137.5040  152.0930 C   0  0  0  0  0  3  0  0  0  0  0  0
  141.9630  137.1300  150.7600 C   0  0  0  0  0  0  0  0  0  0  0  0
  139.1930  137.0900  148.4500 C   0  0  0  0  0  1  0  0  0  0  0  0
  140.3640  136.5320  149.0440 O   0  0  0  0  0  0  0  0  0  0  0  0
  138.6350  138.2120  153.3510 C   0  0  0  0  0  2  0  0  0  0  0  0
  138.8250  137.8530  154.7410 N   0  0  0  0  0  0  0  0  0  0  0  0
  137.9360  138.2430  155.7070 C   0  0  0  0  0  0  0  0  0  0  0  0
  136.9240  138.9230  155.4770 O   0  0  0  0  0  0  0  0  0  0  0  0
  139.6090  137.3160  154.9970 H   0  0  0  0  0  0  0  0  0  0  0  0
  138.3320  137.7640  157.0890 C   0  0  0  0  0  2  0  0  0  0  0  0
  137.3370  136.7430  157.6180 C   0  0  0  0  0  2  0  0  0  0  0  0
  137.0540  135.6320  156.6140 C   0  0  0  0  0  2  0  0  0  0  0  0
  135.5450  135.4960  156.4130 C   0  0  0  0  0  2  0  0  0  0  0  0
  135.2000  135.1880  154.9900 C   0  0  0  0  0  3  0  0  0  0  0  0
  135.7920  135.7920  153.9480 C   0  0  0  0  0  3  0  0  0  0  0  0
  135.4230  135.5140  152.5130 C   0  0  0  0  0  3  0  0  0  0  0  0
  136.1390  134.2650  151.9930 C   0  0  0  0  0  1  0  0  0  0  0  0
  133.9100  135.3480  152.3680 C   0  0  0  0  0  1  0  0  0  0  0  0
  143.1180  136.8430  150.0670 O   0  0  0  0  0  0  0  0  0  0  0  0
  144.2490  137.6290  150.4360 C   0  0  0  0  0  2  0  0  0  0  0  0
  145.5370  137.0220  149.8900 C   0  0  0  0  0  2  0  0  0  0  0  0
  146.7400  137.6770  150.5800 C   0  0  0  0  0  2  0  0  0  0  0  0
  147.0720  136.9860  151.8960 C   0  0  0  0  0  2  0  0  0  0  0  0
  147.5520  137.9750  152.9640 C   0  0  0  0  0  2  0  0  0  0  0  0
  147.1580  139.3910  152.5550 C   0  0  0  0  0  2  0  0  0  0  0  0
  148.2930  140.2860  152.5290 N   0  0  0  0  0  0  0  0  0  0  0  0
  148.6280  141.1180  153.5360 C   0  0  0  0  0  0  0  0  0  0  0  0
  148.0280  141.2410  154.6660 N   0  0  0  0  0  0  0  0  0  0  0  0
  149.6820  141.9040  153.2760 N   0  0  0  0  0  4  0  0  0  0  0  0
  148.8580  140.2880  151.7230 H   0  0  0  0  0  0  0  0  0  0  0  0
  147.2520  140.6720  154.8770 H   0  0  0  0  0  0  0  0  0  0  0  0
  148.3450  141.9030  155.3230 H   0  0  0  0  0  0  0  0  0  0  0  0
  150.1560  141.8240  152.4160 H   0  0  0  0  0  0  0  0  0  0  0  0
  149.9850  142.5600  153.9450 H   0  0  0  0  0  0  0  0  0  0  0  0
  1  6  2  0  0  0  0
  1  2  1  0  0  0  0
  2  3  2  0  0  0  0
  3  4  1  0  0  0  0
  3  9  1  0  0  0  0
  5  4  2  0  0  0  0
  6  5  1  0  0  0  0
  7  8  1  0  0  0  0
  8  1  1  0  0  0  0
  9 10  1  0  0  0  0
 10 13  1  0  0  0  0
 10 11  1  0  0  0  0
 11 14  1  0  0  0  0
 12 11  2  0  0  0  0
 14 15  1  0  0  0  0
 16 15  1  0  0  0  0
 17 16  1  0  0  0  0
 18 17  1  0  0  0  0
 19 18  2  0  0  0  0
 20 19  1  0  0  0  0
 21 20  1  0  0  0  0
 22 20  1  0  0  0  0
 23 24  1  0  0  0  0
 23  6  1  0  0  0  0
 25 24  1  0  0  0  0
 25 26  1  0  0  0  0
 26 27  1  0  0  0  0
 27 28  1  0  0  0  0
 29 28  1  0  0  0  0
 30 29  1  0  0  0  0
 30 31  1  0  0  0  0
 31 32  1  0  0  0  0
 32 35  1  0  0  0  0
 32 36  1  0  0  0  0
 33 31  2  0  0  0  0
 33 38  1  0  0  0  0
 34 30  1  0  0  0  0
 37 33  1  0  0  0  0
M  END
>  <MODEL>
8

>  <REMARK>
 VINA RESULT:    -6.413      2.229      3.467
 INTER + INTRA:         -15.263
 INTER:                 -13.643
 INTRA:                  -1.620
 UNBOUND:                -2.478
  Name = CHEMBL5268617
  20 active torsions:
  status: ('A' for Active; 'I' for Inactive)
    1  A    between atoms: C_1  and  O_2
    2  A    between atoms: O_2  and  C_3
    3  A    between atoms: C_5  and  C_6
    4  A    between atoms: C_6  and  N_7
    5  A    between atoms: C_8  and  C_10
    6  A    between atoms: C_10  and  C_11
    7  A    between atoms: C_11  and  C_12
    8  A    between atoms: C_12  and  C_13
    9  A    between atoms: C_13  and  C_14
   10  A    between atoms: C_15  and  C_16
   11  A    between atoms: C_16  and  C_17
   12  A    between atoms: C_16  and  C_18
   13  A    between atoms: C_21  and  O_22
   14  A    between atoms: O_22  and  C_23
   15  A    between atoms: C_23  and  C_24
   16  A    between atoms: C_24  and  C_25
   17  A    between atoms: C_25  and  C_26
   18  A    between atoms: C_26  and  C_27
   19  A    between atoms: C_27  and  C_28
   20  A    between atoms: C_28  and  N_29
                            x       y       z     vdW  Elec       q    Type
                         _______ _______ _______ _____ _____    ______ ____

>  <TORSDO>
F 17

>  <SCORE>
-6.413

>  <RMSD_LB>
2.229

>  <RMSD_UB>
3.467

$$$$
CHEMBL5268617
 OpenBabel10172500103D

 38 38  0  0  0  0  0  0  0  0999 V2000
  134.5950  134.5280  154.5150 C   0  0  0  0  0  0  0  0  0  0  0  0
  133.6560  134.4650  153.4710 C   0  0  0  0  0  3  0  0  0  0  0  0
  133.7820  135.2000  152.2940 C   0  0  0  0  0  0  0  0  0  0  0  0
  134.8950  136.0300  152.1750 C   0  0  0  0  0  3  0  0  0  0  0  0
  135.8570  136.0930  153.1930 C   0  0  0  0  0  3  0  0  0  0  0  0
  135.7450  135.3140  154.3510 C   0  0  0  0  0  0  0  0  0  0  0  0
  133.9890  134.6870  156.7800 C   0  0  0  0  0  1  0  0  0  0  0  0
  134.3590  133.8470  155.6870 O   0  0  0  0  0  0  0  0  0  0  0  0
  132.7480  135.1180  151.1990 C   0  0  0  0  0  2  0  0  0  0  0  0
  133.2440  135.5190  149.8980 N   0  0  0  0  0  0  0  0  0  0  0  0
  133.2050  134.6670  148.8270 C   0  0  0  0  0  0  0  0  0  0  0  0
  132.7580  133.5110  148.8820 O   0  0  0  0  0  0  0  0  0  0  0  0
  133.6160  136.4220  149.7820 H   0  0  0  0  0  0  0  0  0  0  0  0
  133.7800  135.2880  147.5700 C   0  0  0  0  0  2  0  0  0  0  0  0
  134.9820  136.1600  147.8940 C   0  0  0  0  0  2  0  0  0  0  0  0
  136.2960  135.3930  147.8140 C   0  0  0  0  0  2  0  0  0  0  0  0
  136.7800  135.0600  149.2250 C   0  0  0  0  0  2  0  0  0  0  0  0
  138.0000  135.8450  149.5930 C   0  0  0  0  0  3  0  0  0  0  0  0
  137.9680  136.8940  150.4290 C   0  0  0  0  0  3  0  0  0  0  0  0
  139.1850  137.7130  150.7750 C   0  0  0  0  0  3  0  0  0  0  0  0
  140.4560  137.0770  150.2050 C   0  0  0  0  0  1  0  0  0  0  0  0
  139.0380  139.1430  150.2560 C   0  0  0  0  0  1  0  0  0  0  0  0
  136.7860  135.4700  155.2380 O   0  0  0  0  0  0  0  0  0  0  0  0
  136.9170  136.7810  155.7830 C   0  0  0  0  0  2  0  0  0  0  0  0
  138.0940  136.8560  156.7500 C   0  0  0  0  0  2  0  0  0  0  0  0
  139.2180  137.6880  156.1210 C   0  0  0  0  0  2  0  0  0  0  0  0
  139.0530  137.7970  154.6110 C   0  0  0  0  0  2  0  0  0  0  0  0
  139.6720  139.0810  154.0520 C   0  0  0  0  0  2  0  0  0  0  0  0
  141.1480  138.8400  153.7470 C   0  0  0  0  0  2  0  0  0  0  0  0
  142.0140  139.6610  154.5630 N   0  0  0  0  0  0  0  0  0  0  0  0
  143.2840  139.3390  154.8850 C   0  0  0  0  0  0  0  0  0  0  0  0
  143.9310  138.2910  154.5180 N   0  0  0  0  0  4  0  0  0  0  0  0
  143.8850  140.2160  155.7020 N   0  0  0  0  0  0  0  0  0  0  0  0
  141.6540  140.5110  154.9050 H   0  0  0  0  0  0  0  0  0  0  0  0
  143.5070  137.6360  153.9180 H   0  0  0  0  0  0  0  0  0  0  0  0
  144.8510  138.1430  154.8370 H   0  0  0  0  0  0  0  0  0  0  0  0
  143.4060  141.0260  155.9940 H   0  0  0  0  0  0  0  0  0  0  0  0
  144.8060  140.0520  156.0100 H   0  0  0  0  0  0  0  0  0  0  0  0
  1  8  1  0  0  0  0
  2  1  2  0  0  0  0
  3  2  1  0  0  0  0
  4  3  2  0  0  0  0
  4  5  1  0  0  0  0
  5  6  2  0  0  0  0
  6  1  1  0  0  0  0
  6 23  1  0  0  0  0
  8  7  1  0  0  0  0
  9  3  1  0  0  0  0
 10  9  1  0  0  0  0
 11 12  2  0  0  0  0
 11 10  1  0  0  0  0
 13 10  1  0  0  0  0
 14 15  1  0  0  0  0
 14 11  1  0  0  0  0
 16 15  1  0  0  0  0
 16 17  1  0  0  0  0
 17 18  1  0  0  0  0
 18 19  2  0  0  0  0
 19 20  1  0  0  0  0
 21 20  1  0  0  0  0
 22 20  1  0  0  0  0
 23 24  1  0  0  0  0
 24 25  1  0  0  0  0
 26 25  1  0  0  0  0
 27 26  1  0  0  0  0
 28 27  1  0  0  0  0
 29 28  1  0  0  0  0
 29 30  1  0  0  0  0
 30 31  1  0  0  0  0
 30 34  1  0  0  0  0
 31 33  1  0  0  0  0
 32 36  1  0  0  0  0
 32 31  2  0  0  0  0
 33 37  1  0  0  0  0
 33 38  1  0  0  0  0
 35 32  1  0  0  0  0
M  END
>  <MODEL>
9

>  <REMARK>
 VINA RESULT:    -6.358      3.494      7.610
 INTER + INTRA:         -15.155
 INTER:                 -12.677
 INTRA:                  -2.478
 UNBOUND:                -2.478
  Name = CHEMBL5268617
  20 active torsions:
  status: ('A' for Active; 'I' for Inactive)
    1  A    between atoms: C_1  and  O_2
    2  A    between atoms: O_2  and  C_3
    3  A    between atoms: C_5  and  C_6
    4  A    between atoms: C_6  and  N_7
    5  A    between atoms: C_8  and  C_10
    6  A    between atoms: C_10  and  C_11
    7  A    between atoms: C_11  and  C_12
    8  A    between atoms: C_12  and  C_13
    9  A    between atoms: C_13  and  C_14
   10  A    between atoms: C_15  and  C_16
   11  A    between atoms: C_16  and  C_17
   12  A    between atoms: C_16  and  C_18
   13  A    between atoms: C_21  and  O_22
   14  A    between atoms: O_22  and  C_23
   15  A    between atoms: C_23  and  C_24
   16  A    between atoms: C_24  and  C_25
   17  A    between atoms: C_25  and  C_26
   18  A    between atoms: C_26  and  C_27
   19  A    between atoms: C_27  and  C_28
   20  A    between atoms: C_28  and  N_29
                            x       y       z     vdW  Elec       q    Type
                         _______ _______ _______ _____ _____    ______ ____

>  <TORSDO>
F 17

>  <SCORE>
-6.358

>  <RMSD_LB>
3.494

>  <RMSD_UB>
7.610

$$$$
