CHEMBL1289797
 OpenBabel10162523393D

 25 26  0  0  0  0  0  0  0  0999 V2000
  135.7940  135.4180  152.6450 C   0  0  0  0  0  0  0  0  0  0  0  0
  135.7850  136.5430  152.1340 O   0  0  0  0  0  0  0  0  0  0  0  0
  135.7010  135.3340  154.1310 C   0  0  0  0  0  0  0  0  0  0  0  0
  136.8020  135.8250  154.8670 C   0  0  0  0  0  3  0  0  0  0  0  0
  136.7840  135.8740  156.2680 C   0  0  0  0  0  3  0  0  0  0  0  0
  135.6540  135.4360  156.9400 C   0  0  0  0  0  0  0  0  0  0  0  0
  134.5730  134.9360  156.2250 C   0  0  0  0  0  0  0  0  0  0  0  0
  134.5870  134.8800  154.8290 C   0  0  0  0  0  0  0  0  0  0  0  0
  135.5450  135.4930  158.3010 O   0  0  0  0  0  0  0  0  0  0  0  0
  135.7730  134.7470  158.8210 H   0  0  0  0  0  0  0  0  0  0  0  0
  133.4460  134.5130  156.8840 O   0  0  0  0  0  0  0  0  0  0  0  0
  133.4080  134.5530  157.8200 H   0  0  0  0  0  0  0  0  0  0  0  0
  133.4560  134.4170  154.2180 O   0  0  0  0  0  0  0  0  0  0  0  0
  133.5240  133.8850  153.4500 H   0  0  0  0  0  0  0  0  0  0  0  0
  135.9920  134.1830  151.7820 C   0  0  0  0  0  2  0  0  0  0  0  0
  134.3350  134.1550  148.3220 C   0  0  0  0  0  0  0  0  0  0  0  0
  135.2920  134.2770  149.3340 C   0  0  0  0  0  3  0  0  0  0  0  0
  134.9690  134.0190  150.6790 C   0  0  0  0  0  0  0  0  0  0  0  0
  133.6460  133.6880  151.0020 C   0  0  0  0  0  3  0  0  0  0  0  0
  132.6750  133.5840  150.0050 C   0  0  0  0  0  3  0  0  0  0  0  0
  133.0250  133.8100  148.6740 C   0  0  0  0  0  0  0  0  0  0  0  0
  135.9230  134.1920  146.5470 C   0  0  0  0  0  1  0  0  0  0  0  0
  134.5810  134.3550  146.9880 O   0  0  0  0  0  0  0  0  0  0  0  0
  132.0720  133.6980  147.6950 O   0  0  0  0  0  0  0  0  0  0  0  0
  132.2600  133.2180  146.9120 H   0  0  0  0  0  0  0  0  0  0  0  0
  1  3  1  0  0  0  0
  2  1  2  0  0  0  0
  3  8  2  0  0  0  0
  3  4  1  0  0  0  0
  4  5  2  0  0  0  0
  5  6  1  0  0  0  0
  6  9  1  0  0  0  0
  7 11  1  0  0  0  0
  7  6  2  0  0  0  0
  8  7  1  0  0  0  0
  9 10  1  0  0  0  0
 11 12  1  0  0  0  0
 13  8  1  0  0  0  0
 14 13  1  0  0  0  0
 15  1  1  0  0  0  0
 16 21  2  0  0  0  0
 16 17  1  0  0  0  0
 17 18  2  0  0  0  0
 18 19  1  0  0  0  0
 18 15  1  0  0  0  0
 20 19  2  0  0  0  0
 21 20  1  0  0  0  0
 22 23  1  0  0  0  0
 23 16  1  0  0  0  0
 24 21  1  0  0  0  0
 25 24  1  0  0  0  0
M  END
>  <MODEL>
1

>  <REMARK>
 VINA RESULT:    -7.299      0.000      0.000
 INTER + INTRA:         -10.517
 INTER:                  -9.955
 INTRA:                  -0.562
 UNBOUND:                -0.658
  Name = CHEMBL1289797
  9 active torsions:
  status: ('A' for Active; 'I' for Inactive)
    1  A    between atoms: C_1  and  O_2
    2  A    between atoms: O_2  and  C_3
    3  A    between atoms: C_5  and  C_6
    4  A    between atoms: C_6  and  C_7
    5  A    between atoms: C_7  and  C_9
    6  A    between atoms: C_12  and  O_13
    7  A    between atoms: C_14  and  O_15
    8  A    between atoms: C_16  and  O_17
    9  A    between atoms: C_20  and  O_21
                            x       y       z     vdW  Elec       q    Type
                         _______ _______ _______ _____ _____    ______ ____

>  <TORSDO>
F 8

>  <SCORE>
-7.299

>  <RMSD_LB>
0.000

>  <RMSD_UB>
0.000

$$$$
CHEMBL1289797
 OpenBabel10162523393D

 25 26  0  0  0  0  0  0  0  0999 V2000
  134.1240  134.6440  151.6430 C   0  0  0  0  0  0  0  0  0  0  0  0
  133.2090  135.2380  152.2250 O   0  0  0  0  0  0  0  0  0  0  0  0
  133.9060  134.2690  150.2160 C   0  0  0  0  0  0  0  0  0  0  0  0
  134.2780  132.9590  149.8390 C   0  0  0  0  0  3  0  0  0  0  0  0
  134.0380  132.4730  148.5460 C   0  0  0  0  0  3  0  0  0  0  0  0
  133.4130  133.2990  147.6240 C   0  0  0  0  0  0  0  0  0  0  0  0
  133.0590  134.5940  147.9820 C   0  0  0  0  0  0  0  0  0  0  0  0
  133.3010  135.0850  149.2670 C   0  0  0  0  0  0  0  0  0  0  0  0
  133.1070  132.8810  146.3600 O   0  0  0  0  0  0  0  0  0  0  0  0
  133.0470  133.5050  145.6620 H   0  0  0  0  0  0  0  0  0  0  0  0
  132.4290  135.4110  147.0780 O   0  0  0  0  0  0  0  0  0  0  0  0
  132.9320  135.8990  146.4570 H   0  0  0  0  0  0  0  0  0  0  0  0
  132.8710  136.3540  149.5340 O   0  0  0  0  0  0  0  0  0  0  0  0
  133.1910  137.0730  149.0270 H   0  0  0  0  0  0  0  0  0  0  0  0
  135.3780  134.2370  152.3980 C   0  0  0  0  0  2  0  0  0  0  0  0
  136.9010  137.0600  154.5020 C   0  0  0  0  0  0  0  0  0  0  0  0
  136.5580  136.2540  153.4120 C   0  0  0  0  0  3  0  0  0  0  0  0
  135.7250  135.1320  153.5690 C   0  0  0  0  0  0  0  0  0  0  0  0
  135.2830  134.7940  154.8550 C   0  0  0  0  0  3  0  0  0  0  0  0
  135.6360  135.5760  155.9560 C   0  0  0  0  0  3  0  0  0  0  0  0
  136.4340  136.7060  155.7730 C   0  0  0  0  0  0  0  0  0  0  0  0
  138.7400  138.1780  153.4800 C   0  0  0  0  0  1  0  0  0  0  0  0
  137.6770  138.1880  154.4250 O   0  0  0  0  0  0  0  0  0  0  0  0
  136.7710  137.4780  156.8540 O   0  0  0  0  0  0  0  0  0  0  0  0
  136.2020  137.5150  157.5980 H   0  0  0  0  0  0  0  0  0  0  0  0
  1  2  2  0  0  0  0
  1 15  1  0  0  0  0
  3  1  1  0  0  0  0
  4  3  1  0  0  0  0
  5  4  2  0  0  0  0
  6  7  2  0  0  0  0
  6  5  1  0  0  0  0
  7  8  1  0  0  0  0
  8 13  1  0  0  0  0
  8  3  2  0  0  0  0
  9  6  1  0  0  0  0
 10  9  1  0  0  0  0
 11  7  1  0  0  0  0
 12 11  1  0  0  0  0
 14 13  1  0  0  0  0
 15 18  1  0  0  0  0
 16 21  1  0  0  0  0
 17 18  1  0  0  0  0
 17 16  2  0  0  0  0
 18 19  2  0  0  0  0
 19 20  1  0  0  0  0
 21 20  2  0  0  0  0
 21 24  1  0  0  0  0
 22 23  1  0  0  0  0
 23 16  1  0  0  0  0
 24 25  1  0  0  0  0
M  END
>  <MODEL>
2

>  <REMARK>
 VINA RESULT:    -7.142      1.889      7.319
 INTER + INTRA:         -10.305
 INTER:                  -9.625
 INTRA:                  -0.680
 UNBOUND:                -0.658
  Name = CHEMBL1289797
  9 active torsions:
  status: ('A' for Active; 'I' for Inactive)
    1  A    between atoms: C_1  and  O_2
    2  A    between atoms: O_2  and  C_3
    3  A    between atoms: C_5  and  C_6
    4  A    between atoms: C_6  and  C_7
    5  A    between atoms: C_7  and  C_9
    6  A    between atoms: C_12  and  O_13
    7  A    between atoms: C_14  and  O_15
    8  A    between atoms: C_16  and  O_17
    9  A    between atoms: C_20  and  O_21
                            x       y       z     vdW  Elec       q    Type
                         _______ _______ _______ _____ _____    ______ ____

>  <TORSDO>
F 8

>  <SCORE>
-7.142

>  <RMSD_LB>
1.889

>  <RMSD_UB>
7.319

$$$$
CHEMBL1289797
 OpenBabel10162523393D

 25 26  0  0  0  0  0  0  0  0999 V2000
  144.0800  138.1430  151.5630 C   0  0  0  0  0  0  0  0  0  0  0  0
  144.3570  138.6780  150.4840 O   0  0  0  0  0  0  0  0  0  0  0  0
  144.9180  138.4980  152.7450 C   0  0  0  0  0  0  0  0  0  0  0  0
  145.4660  137.4240  153.4820 C   0  0  0  0  0  3  0  0  0  0  0  0
  146.3380  137.6440  154.5580 C   0  0  0  0  0  3  0  0  0  0  0  0
  146.6710  138.9460  154.8970 C   0  0  0  0  0  0  0  0  0  0  0  0
  146.1220  140.0080  154.1880 C   0  0  0  0  0  0  0  0  0  0  0  0
  145.2500  139.7960  153.1190 C   0  0  0  0  0  0  0  0  0  0  0  0
  147.5460  139.2370  155.9040 O   0  0  0  0  0  0  0  0  0  0  0  0
  148.0070  138.5460  156.3400 H   0  0  0  0  0  0  0  0  0  0  0  0
  146.4590  141.2990  154.5110 O   0  0  0  0  0  0  0  0  0  0  0  0
  146.4490  141.9650  153.8520 H   0  0  0  0  0  0  0  0  0  0  0  0
  144.8040  140.9040  152.4560 O   0  0  0  0  0  0  0  0  0  0  0  0
  143.9520  141.2480  152.6390 H   0  0  0  0  0  0  0  0  0  0  0  0
  142.9840  137.0940  151.6420 C   0  0  0  0  0  2  0  0  0  0  0  0
  140.3870  138.3120  154.1890 C   0  0  0  0  0  0  0  0  0  0  0  0
  141.5940  137.8900  153.6220 C   0  0  0  0  0  3  0  0  0  0  0  0
  141.6890  137.5840  152.2530 C   0  0  0  0  0  0  0  0  0  0  0  0
  140.5330  137.6530  151.4650 C   0  0  0  0  0  3  0  0  0  0  0  0
  139.3160  138.0510  152.0210 C   0  0  0  0  0  3  0  0  0  0  0  0
  139.2520  138.3850  153.3740 C   0  0  0  0  0  0  0  0  0  0  0  0
  140.4470  137.6480  156.4760 C   0  0  0  0  0  1  0  0  0  0  0  0
  140.2240  138.6620  155.5040 O   0  0  0  0  0  0  0  0  0  0  0  0
  138.0580  138.7850  153.9160 O   0  0  0  0  0  0  0  0  0  0  0  0
  137.7700  138.4220  154.7310 H   0  0  0  0  0  0  0  0  0  0  0  0
  1 15  1  0  0  0  0
  1  3  1  0  0  0  0
  2  1  2  0  0  0  0
  3  8  2  0  0  0  0
  3  4  1  0  0  0  0
  4  5  2  0  0  0  0
  5  6  1  0  0  0  0
  6  9  1  0  0  0  0
  7 11  1  0  0  0  0
  7  6  2  0  0  0  0
  8  7  1  0  0  0  0
  9 10  1  0  0  0  0
 12 11  1  0  0  0  0
 13 14  1  0  0  0  0
 13  8  1  0  0  0  0
 15 18  1  0  0  0  0
 16 23  1  0  0  0  0
 17 16  1  0  0  0  0
 18 17  2  0  0  0  0
 19 20  2  0  0  0  0
 19 18  1  0  0  0  0
 20 21  1  0  0  0  0
 21 24  1  0  0  0  0
 21 16  2  0  0  0  0
 23 22  1  0  0  0  0
 24 25  1  0  0  0  0
M  END
>  <MODEL>
3

>  <REMARK>
 VINA RESULT:    -6.900      8.068     10.414
 INTER + INTRA:          -9.978
 INTER:                  -9.075
 INTRA:                  -0.903
 UNBOUND:                -0.658
  Name = CHEMBL1289797
  9 active torsions:
  status: ('A' for Active; 'I' for Inactive)
    1  A    between atoms: C_1  and  O_2
    2  A    between atoms: O_2  and  C_3
    3  A    between atoms: C_5  and  C_6
    4  A    between atoms: C_6  and  C_7
    5  A    between atoms: C_7  and  C_9
    6  A    between atoms: C_12  and  O_13
    7  A    between atoms: C_14  and  O_15
    8  A    between atoms: C_16  and  O_17
    9  A    between atoms: C_20  and  O_21
                            x       y       z     vdW  Elec       q    Type
                         _______ _______ _______ _____ _____    ______ ____

>  <TORSDO>
F 8

>  <SCORE>
-6.900

>  <RMSD_LB>
8.068

>  <RMSD_UB>
10.414

$$$$
CHEMBL1289797
 OpenBabel10162523393D

 25 26  0  0  0  0  0  0  0  0999 V2000
  137.8560  137.4880  151.0890 C   0  0  0  0  0  0  0  0  0  0  0  0
  137.9100  138.4280  150.2880 O   0  0  0  0  0  0  0  0  0  0  0  0
  138.1260  137.7880  152.5250 C   0  0  0  0  0  0  0  0  0  0  0  0
  137.4390  137.0040  153.4790 C   0  0  0  0  0  3  0  0  0  0  0  0
  137.6810  137.1430  154.8530 C   0  0  0  0  0  3  0  0  0  0  0  0
  138.6220  138.0680  155.2780 C   0  0  0  0  0  0  0  0  0  0  0  0
  139.2890  138.8550  154.3470 C   0  0  0  0  0  0  0  0  0  0  0  0
  139.0480  138.7240  152.9780 C   0  0  0  0  0  0  0  0  0  0  0  0
  138.9430  138.2300  156.5960 O   0  0  0  0  0  0  0  0  0  0  0  0
  139.2560  137.5010  157.0950 H   0  0  0  0  0  0  0  0  0  0  0  0
  140.2320  139.7630  154.7620 O   0  0  0  0  0  0  0  0  0  0  0  0
  140.6360  140.3360  154.1410 H   0  0  0  0  0  0  0  0  0  0  0  0
  139.7920  139.5100  152.1420 O   0  0  0  0  0  0  0  0  0  0  0  0
  139.5740  140.4140  152.0330 H   0  0  0  0  0  0  0  0  0  0  0  0
  137.6180  136.0700  150.5960 C   0  0  0  0  0  2  0  0  0  0  0  0
  133.7880  135.8960  150.4880 C   0  0  0  0  0  0  0  0  0  0  0  0
  135.1020  136.3380  150.3070 C   0  0  0  0  0  3  0  0  0  0  0  0
  136.1960  135.5800  150.7600 C   0  0  0  0  0  0  0  0  0  0  0  0
  135.9490  134.3880  151.4540 C   0  0  0  0  0  3  0  0  0  0  0  0
  134.6410  133.9450  151.6630 C   0  0  0  0  0  3  0  0  0  0  0  0
  133.5720  134.6950  151.1730 C   0  0  0  0  0  0  0  0  0  0  0  0
  132.6870  137.0190  148.6980 C   0  0  0  0  0  1  0  0  0  0  0  0
  132.6730  136.5600  150.0440 O   0  0  0  0  0  0  0  0  0  0  0  0
  132.2900  134.2540  151.3710 O   0  0  0  0  0  0  0  0  0  0  0  0
  132.1280  133.3450  151.5340 H   0  0  0  0  0  0  0  0  0  0  0  0
  1  3  1  0  0  0  0
  2  1  2  0  0  0  0
  3  8  2  0  0  0  0
  3  4  1  0  0  0  0
  4  5  2  0  0  0  0
  5  6  1  0  0  0  0
  6  9  1  0  0  0  0
  7 11  1  0  0  0  0
  7  6  2  0  0  0  0
  8  7  1  0  0  0  0
  9 10  1  0  0  0  0
 12 11  1  0  0  0  0
 13  8  1  0  0  0  0
 14 13  1  0  0  0  0
 15 18  1  0  0  0  0
 15  1  1  0  0  0  0
 16 21  1  0  0  0  0
 17 16  2  0  0  0  0
 17 18  1  0  0  0  0
 18 19  2  0  0  0  0
 19 20  1  0  0  0  0
 21 24  1  0  0  0  0
 21 20  2  0  0  0  0
 22 23  1  0  0  0  0
 23 16  1  0  0  0  0
 24 25  1  0  0  0  0
M  END
>  <MODEL>
4

>  <REMARK>
 VINA RESULT:    -6.887      3.250      4.434
 INTER + INTRA:          -9.960
 INTER:                  -9.147
 INTRA:                  -0.813
 UNBOUND:                -0.658
  Name = CHEMBL1289797
  9 active torsions:
  status: ('A' for Active; 'I' for Inactive)
    1  A    between atoms: C_1  and  O_2
    2  A    between atoms: O_2  and  C_3
    3  A    between atoms: C_5  and  C_6
    4  A    between atoms: C_6  and  C_7
    5  A    between atoms: C_7  and  C_9
    6  A    between atoms: C_12  and  O_13
    7  A    between atoms: C_14  and  O_15
    8  A    between atoms: C_16  and  O_17
    9  A    between atoms: C_20  and  O_21
                            x       y       z     vdW  Elec       q    Type
                         _______ _______ _______ _____ _____    ______ ____

>  <TORSDO>
F 8

>  <SCORE>
-6.887

>  <RMSD_LB>
3.250

>  <RMSD_UB>
4.434

$$$$
CHEMBL1289797
 OpenBabel10162523393D

 25 26  0  0  0  0  0  0  0  0999 V2000
  143.3060  138.7460  153.1830 C   0  0  0  0  0  0  0  0  0  0  0  0
  143.2680  139.7370  152.4440 O   0  0  0  0  0  0  0  0  0  0  0  0
  144.6220  138.3830  153.7830 C   0  0  0  0  0  0  0  0  0  0  0  0
  145.0610  137.0530  153.5960 C   0  0  0  0  0  3  0  0  0  0  0  0
  146.3190  136.6270  154.0430 C   0  0  0  0  0  3  0  0  0  0  0  0
  147.1500  137.5380  154.6760 C   0  0  0  0  0  0  0  0  0  0  0  0
  146.7200  138.8440  154.8780 C   0  0  0  0  0  0  0  0  0  0  0  0
  145.4650  139.2720  154.4400 C   0  0  0  0  0  0  0  0  0  0  0  0
  148.4070  137.2100  155.1000 O   0  0  0  0  0  0  0  0  0  0  0  0
  148.5420  136.9150  155.9800 H   0  0  0  0  0  0  0  0  0  0  0  0
  147.5440  139.7540  155.4920 O   0  0  0  0  0  0  0  0  0  0  0  0
  148.2010  140.2000  154.9950 H   0  0  0  0  0  0  0  0  0  0  0  0
  145.1550  140.5870  154.6430 O   0  0  0  0  0  0  0  0  0  0  0  0
  144.5080  140.8230  155.2780 H   0  0  0  0  0  0  0  0  0  0  0  0
  142.0680  137.8880  153.3810 C   0  0  0  0  0  2  0  0  0  0  0  0
  139.1850  137.4450  150.8890 C   0  0  0  0  0  0  0  0  0  0  0  0
  139.8980  137.7450  152.0540 C   0  0  0  0  0  3  0  0  0  0  0  0
  141.2960  137.5970  152.1130 C   0  0  0  0  0  0  0  0  0  0  0  0
  141.9670  137.0850  150.9940 C   0  0  0  0  0  3  0  0  0  0  0  0
  141.2650  136.7600  149.8320 C   0  0  0  0  0  3  0  0  0  0  0  0
  139.8840  136.9480  149.7830 C   0  0  0  0  0  0  0  0  0  0  0  0
  136.9970  136.7490  151.5250 C   0  0  0  0  0  1  0  0  0  0  0  0
  137.8300  137.5960  150.7430 O   0  0  0  0  0  0  0  0  0  0  0  0
  139.1990  136.6370  148.6380 O   0  0  0  0  0  0  0  0  0  0  0  0
  139.5480  136.8820  147.8030 H   0  0  0  0  0  0  0  0  0  0  0  0
  1 15  1  0  0  0  0
  1  3  1  0  0  0  0
  2  1  2  0  0  0  0
  3  8  1  0  0  0  0
  4  3  2  0  0  0  0
  4  5  1  0  0  0  0
  5  6  2  0  0  0  0
  6  7  1  0  0  0  0
  6  9  1  0  0  0  0
  7 11  1  0  0  0  0
  8 13  1  0  0  0  0
  8  7  2  0  0  0  0
  9 10  1  0  0  0  0
 12 11  1  0  0  0  0
 13 14  1  0  0  0  0
 16 17  1  0  0  0  0
 17 18  2  0  0  0  0
 18 15  1  0  0  0  0
 19 18  1  0  0  0  0
 20 19  2  0  0  0  0
 21 20  1  0  0  0  0
 21 16  2  0  0  0  0
 23 16  1  0  0  0  0
 23 22  1  0  0  0  0
 24 21  1  0  0  0  0
 25 24  1  0  0  0  0
M  END
>  <MODEL>
5

>  <REMARK>
 VINA RESULT:    -6.774      8.001      9.654
 INTER + INTRA:          -9.808
 INTER:                  -9.067
 INTRA:                  -0.740
 UNBOUND:                -0.658
  Name = CHEMBL1289797
  9 active torsions:
  status: ('A' for Active; 'I' for Inactive)
    1  A    between atoms: C_1  and  O_2
    2  A    between atoms: O_2  and  C_3
    3  A    between atoms: C_5  and  C_6
    4  A    between atoms: C_6  and  C_7
    5  A    between atoms: C_7  and  C_9
    6  A    between atoms: C_12  and  O_13
    7  A    between atoms: C_14  and  O_15
    8  A    between atoms: C_16  and  O_17
    9  A    between atoms: C_20  and  O_21
                            x       y       z     vdW  Elec       q    Type
                         _______ _______ _______ _____ _____    ______ ____

>  <TORSDO>
F 8

>  <SCORE>
-6.774

>  <RMSD_LB>
8.001

>  <RMSD_UB>
9.654

$$$$
CHEMBL1289797
 OpenBabel10162523393D

 25 26  0  0  0  0  0  0  0  0999 V2000
  135.1010  134.8720  152.2480 C   0  0  0  0  0  0  0  0  0  0  0  0
  136.1030  134.8430  151.5230 O   0  0  0  0  0  0  0  0  0  0  0  0
  135.3000  135.2090  153.6870 C   0  0  0  0  0  0  0  0  0  0  0  0
  134.5930  134.4250  154.6270 C   0  0  0  0  0  3  0  0  0  0  0  0
  134.7720  134.5980  156.0070 C   0  0  0  0  0  3  0  0  0  0  0  0
  135.6690  135.5570  156.4520 C   0  0  0  0  0  0  0  0  0  0  0  0
  136.3550  136.3430  155.5350 C   0  0  0  0  0  0  0  0  0  0  0  0
  136.1770  136.1790  154.1590 C   0  0  0  0  0  0  0  0  0  0  0  0
  135.9280  135.7540  157.7790 O   0  0  0  0  0  0  0  0  0  0  0  0
  135.6090  136.5230  158.2090 H   0  0  0  0  0  0  0  0  0  0  0  0
  137.2540  137.2840  155.9700 O   0  0  0  0  0  0  0  0  0  0  0  0
  138.0580  137.4130  155.5070 H   0  0  0  0  0  0  0  0  0  0  0  0
  136.9340  136.9670  153.3390 O   0  0  0  0  0  0  0  0  0  0  0  0
  137.5100  137.6080  153.7070 H   0  0  0  0  0  0  0  0  0  0  0  0
  133.7410  134.4820  151.6940 C   0  0  0  0  0  2  0  0  0  0  0  0
  133.4100  134.8820  147.8930 C   0  0  0  0  0  0  0  0  0  0  0  0
  133.4500  135.1750  149.2600 C   0  0  0  0  0  3  0  0  0  0  0  0
  133.7310  134.1780  150.2120 C   0  0  0  0  0  0  0  0  0  0  0  0
  133.9170  132.8600  149.7730 C   0  0  0  0  0  3  0  0  0  0  0  0
  133.8580  132.5490  148.4130 C   0  0  0  0  0  3  0  0  0  0  0  0
  133.6130  133.5590  147.4830 C   0  0  0  0  0  0  0  0  0  0  0  0
  132.5200  137.0060  147.2830 C   0  0  0  0  0  1  0  0  0  0  0  0
  133.1790  135.8040  146.9050 O   0  0  0  0  0  0  0  0  0  0  0  0
  133.5650  133.2530  146.1480 O   0  0  0  0  0  0  0  0  0  0  0  0
  133.1590  133.8470  145.5470 H   0  0  0  0  0  0  0  0  0  0  0  0
  1  3  1  0  0  0  0
  2  1  2  0  0  0  0
  3  8  2  0  0  0  0
  3  4  1  0  0  0  0
  4  5  2  0  0  0  0
  5  6  1  0  0  0  0
  6  9  1  0  0  0  0
  7 11  1  0  0  0  0
  7  6  2  0  0  0  0
  8  7  1  0  0  0  0
  9 10  1  0  0  0  0
 12 11  1  0  0  0  0
 13 14  1  0  0  0  0
 13  8  1  0  0  0  0
 15  1  1  0  0  0  0
 16 17  1  0  0  0  0
 17 18  2  0  0  0  0
 18 15  1  0  0  0  0
 19 18  1  0  0  0  0
 20 19  2  0  0  0  0
 21 16  2  0  0  0  0
 21 20  1  0  0  0  0
 23 22  1  0  0  0  0
 23 16  1  0  0  0  0
 24 21  1  0  0  0  0
 25 24  1  0  0  0  0
M  END
>  <MODEL>
6

>  <REMARK>
 VINA RESULT:    -6.751      1.646      2.405
 INTER + INTRA:          -9.777
 INTER:                  -9.097
 INTRA:                  -0.679
 UNBOUND:                -0.658
  Name = CHEMBL1289797
  9 active torsions:
  status: ('A' for Active; 'I' for Inactive)
    1  A    between atoms: C_1  and  O_2
    2  A    between atoms: O_2  and  C_3
    3  A    between atoms: C_5  and  C_6
    4  A    between atoms: C_6  and  C_7
    5  A    between atoms: C_7  and  C_9
    6  A    between atoms: C_12  and  O_13
    7  A    between atoms: C_14  and  O_15
    8  A    between atoms: C_16  and  O_17
    9  A    between atoms: C_20  and  O_21
                            x       y       z     vdW  Elec       q    Type
                         _______ _______ _______ _____ _____    ______ ____

>  <TORSDO>
F 8

>  <SCORE>
-6.751

>  <RMSD_LB>
1.646

>  <RMSD_UB>
2.405

$$$$
CHEMBL1289797
 OpenBabel10162523393D

 25 26  0  0  0  0  0  0  0  0999 V2000
  145.9800  137.8390  153.9340 C   0  0  0  0  0  0  0  0  0  0  0  0
  146.2610  136.6600  154.1800 O   0  0  0  0  0  0  0  0  0  0  0  0
  144.5380  138.1880  153.7800 C   0  0  0  0  0  0  0  0  0  0  0  0
  143.8350  137.5420  152.7390 C   0  0  0  0  0  3  0  0  0  0  0  0
  142.4570  137.7310  152.5590 C   0  0  0  0  0  3  0  0  0  0  0  0
  141.7750  138.5660  153.4290 C   0  0  0  0  0  0  0  0  0  0  0  0
  142.4630  139.2190  154.4450 C   0  0  0  0  0  0  0  0  0  0  0  0
  143.8360  139.0390  154.6260 C   0  0  0  0  0  0  0  0  0  0  0  0
  140.4260  138.7660  153.3440 O   0  0  0  0  0  0  0  0  0  0  0  0
  140.0470  139.0630  152.5400 H   0  0  0  0  0  0  0  0  0  0  0  0
  141.7900  140.0370  155.3180 O   0  0  0  0  0  0  0  0  0  0  0  0
  142.1040  140.9040  155.4850 H   0  0  0  0  0  0  0  0  0  0  0  0
  144.4100  139.6870  155.6830 O   0  0  0  0  0  0  0  0  0  0  0  0
  145.0840  140.3210  155.5340 H   0  0  0  0  0  0  0  0  0  0  0  0
  147.0830  138.8600  153.7060 C   0  0  0  0  0  2  0  0  0  0  0  0
  146.4660  140.7500  150.4260 C   0  0  0  0  0  0  0  0  0  0  0  0
  146.7610  139.7280  151.3340 C   0  0  0  0  0  3  0  0  0  0  0  0
  146.7320  139.9530  152.7220 C   0  0  0  0  0  0  0  0  0  0  0  0
  146.4550  141.2450  153.1890 C   0  0  0  0  0  3  0  0  0  0  0  0
  146.1810  142.2810  152.2940 C   0  0  0  0  0  3  0  0  0  0  0  0
  146.1800  142.0280  150.9230 C   0  0  0  0  0  0  0  0  0  0  0  0
  145.4430  139.7390  148.5280 C   0  0  0  0  0  1  0  0  0  0  0  0
  146.4390  140.6000  149.0640 O   0  0  0  0  0  0  0  0  0  0  0  0
  145.9020  143.0440  150.0470 O   0  0  0  0  0  0  0  0  0  0  0  0
  145.0110  143.2590  149.8490 H   0  0  0  0  0  0  0  0  0  0  0  0
  1  2  2  0  0  0  0
  3  1  1  0  0  0  0
  3  8  1  0  0  0  0
  4  3  2  0  0  0  0
  5  4  1  0  0  0  0
  5  6  2  0  0  0  0
  6  7  1  0  0  0  0
  7  8  2  0  0  0  0
  7 11  1  0  0  0  0
  8 13  1  0  0  0  0
  9  6  1  0  0  0  0
 10  9  1  0  0  0  0
 11 12  1  0  0  0  0
 14 13  1  0  0  0  0
 15  1  1  0  0  0  0
 16 21  2  0  0  0  0
 16 17  1  0  0  0  0
 17 18  2  0  0  0  0
 18 19  1  0  0  0  0
 18 15  1  0  0  0  0
 20 19  2  0  0  0  0
 21 20  1  0  0  0  0
 22 23  1  0  0  0  0
 23 16  1  0  0  0  0
 24 21  1  0  0  0  0
 25 24  1  0  0  0  0
M  END
>  <MODEL>
7

>  <REMARK>
 VINA RESULT:    -6.740      9.775     11.934
 INTER + INTRA:          -9.762
 INTER:                  -8.866
 INTRA:                  -0.895
 UNBOUND:                -0.658
  Name = CHEMBL1289797
  9 active torsions:
  status: ('A' for Active; 'I' for Inactive)
    1  A    between atoms: C_1  and  O_2
    2  A    between atoms: O_2  and  C_3
    3  A    between atoms: C_5  and  C_6
    4  A    between atoms: C_6  and  C_7
    5  A    between atoms: C_7  and  C_9
    6  A    between atoms: C_12  and  O_13
    7  A    between atoms: C_14  and  O_15
    8  A    between atoms: C_16  and  O_17
    9  A    between atoms: C_20  and  O_21
                            x       y       z     vdW  Elec       q    Type
                         _______ _______ _______ _____ _____    ______ ____

>  <TORSDO>
F 8

>  <SCORE>
-6.740

>  <RMSD_LB>
9.775

>  <RMSD_UB>
11.934

$$$$
CHEMBL1289797
 OpenBabel10162523393D

 25 26  0  0  0  0  0  0  0  0999 V2000
  134.7830  135.4770  152.9220 C   0  0  0  0  0  0  0  0  0  0  0  0
  133.9850  136.3130  153.3610 O   0  0  0  0  0  0  0  0  0  0  0  0
  134.6290  135.0540  151.5000 C   0  0  0  0  0  0  0  0  0  0  0  0
  135.7870  135.1050  150.6920 C   0  0  0  0  0  3  0  0  0  0  0  0
  135.7760  134.6510  149.3660 C   0  0  0  0  0  3  0  0  0  0  0  0
  134.6010  134.1340  148.8440 C   0  0  0  0  0  0  0  0  0  0  0  0
  133.4530  134.0960  149.6260 C   0  0  0  0  0  0  0  0  0  0  0  0
  133.4570  134.5520  150.9460 C   0  0  0  0  0  0  0  0  0  0  0  0
  134.5230  133.6320  147.5760 O   0  0  0  0  0  0  0  0  0  0  0  0
  134.7830  134.1610  146.8460 H   0  0  0  0  0  0  0  0  0  0  0  0
  132.2900  133.5730  149.1190 O   0  0  0  0  0  0  0  0  0  0  0  0
  132.1520  132.6460  149.1220 H   0  0  0  0  0  0  0  0  0  0  0  0
  132.2910  134.4260  151.6470 O   0  0  0  0  0  0  0  0  0  0  0  0
  132.2860  134.5540  152.5750 H   0  0  0  0  0  0  0  0  0  0  0  0
  135.8150  134.8440  153.8410 C   0  0  0  0  0  2  0  0  0  0  0  0
  136.3340  136.4080  157.3050 C   0  0  0  0  0  0  0  0  0  0  0  0
  135.9050  135.5520  156.2860 C   0  0  0  0  0  3  0  0  0  0  0  0
  136.3040  135.7470  154.9520 C   0  0  0  0  0  0  0  0  0  0  0  0
  137.1020  136.8580  154.6430 C   0  0  0  0  0  3  0  0  0  0  0  0
  137.5190  137.7340  155.6460 C   0  0  0  0  0  3  0  0  0  0  0  0
  137.1410  137.5010  156.9680 C   0  0  0  0  0  0  0  0  0  0  0  0
  135.1540  135.1860  158.9750 C   0  0  0  0  0  1  0  0  0  0  0  0
  136.0170  136.2630  158.6310 O   0  0  0  0  0  0  0  0  0  0  0  0
  137.5600  138.3570  157.9530 O   0  0  0  0  0  0  0  0  0  0  0  0
  138.4650  138.5920  158.0140 H   0  0  0  0  0  0  0  0  0  0  0  0
  1  2  2  0  0  0  0
  1 15  1  0  0  0  0
  3  1  1  0  0  0  0
  4  3  2  0  0  0  0
  5  4  1  0  0  0  0
  6  5  2  0  0  0  0
  6  7  1  0  0  0  0
  7  8  2  0  0  0  0
  8  3  1  0  0  0  0
  8 13  1  0  0  0  0
  9  6  1  0  0  0  0
 10  9  1  0  0  0  0
 11 12  1  0  0  0  0
 11  7  1  0  0  0  0
 13 14  1  0  0  0  0
 15 18  1  0  0  0  0
 16 23  1  0  0  0  0
 17 16  2  0  0  0  0
 18 17  1  0  0  0  0
 19 18  2  0  0  0  0
 19 20  1  0  0  0  0
 20 21  2  0  0  0  0
 21 16  1  0  0  0  0
 21 24  1  0  0  0  0
 23 22  1  0  0  0  0
 24 25  1  0  0  0  0
M  END
>  <MODEL>
8

>  <REMARK>
 VINA RESULT:    -6.718      1.575      7.662
 INTER + INTRA:          -9.732
 INTER:                  -9.026
 INTRA:                  -0.707
 UNBOUND:                -0.658
  Name = CHEMBL1289797
  9 active torsions:
  status: ('A' for Active; 'I' for Inactive)
    1  A    between atoms: C_1  and  O_2
    2  A    between atoms: O_2  and  C_3
    3  A    between atoms: C_5  and  C_6
    4  A    between atoms: C_6  and  C_7
    5  A    between atoms: C_7  and  C_9
    6  A    between atoms: C_12  and  O_13
    7  A    between atoms: C_14  and  O_15
    8  A    between atoms: C_16  and  O_17
    9  A    between atoms: C_20  and  O_21
                            x       y       z     vdW  Elec       q    Type
                         _______ _______ _______ _____ _____    ______ ____

>  <TORSDO>
F 8

>  <SCORE>
-6.718

>  <RMSD_LB>
1.575

>  <RMSD_UB>
7.662

$$$$
CHEMBL1289797
 OpenBabel10162523393D

 25 26  0  0  0  0  0  0  0  0999 V2000
  136.0700  136.0080  152.9240 C   0  0  0  0  0  0  0  0  0  0  0  0
  136.7210  135.8640  151.8830 O   0  0  0  0  0  0  0  0  0  0  0  0
  136.7830  136.5570  154.1140 C   0  0  0  0  0  0  0  0  0  0  0  0
  136.5160  135.9400  155.3560 C   0  0  0  0  0  3  0  0  0  0  0  0
  137.1940  136.3190  156.5230 C   0  0  0  0  0  3  0  0  0  0  0  0
  138.1530  137.3170  156.4480 C   0  0  0  0  0  0  0  0  0  0  0  0
  138.4100  137.9400  155.2330 C   0  0  0  0  0  0  0  0  0  0  0  0
  137.7340  137.5710  154.0680 C   0  0  0  0  0  0  0  0  0  0  0  0
  138.8850  137.7100  157.5320 O   0  0  0  0  0  0  0  0  0  0  0  0
  138.5630  137.5510  158.3980 H   0  0  0  0  0  0  0  0  0  0  0  0
  139.3680  138.9190  155.1500 O   0  0  0  0  0  0  0  0  0  0  0  0
  140.1930  138.7350  154.7470 H   0  0  0  0  0  0  0  0  0  0  0  0
  138.0940  138.2100  152.9150 O   0  0  0  0  0  0  0  0  0  0  0  0
  138.7120  138.9120  152.9430 H   0  0  0  0  0  0  0  0  0  0  0  0
  134.6240  135.5460  152.9960 C   0  0  0  0  0  2  0  0  0  0  0  0
  132.9840  135.5790  149.5290 C   0  0  0  0  0  0  0  0  0  0  0  0
  133.5470  136.0080  150.7350 C   0  0  0  0  0  3  0  0  0  0  0  0
  134.0450  135.0880  151.6750 C   0  0  0  0  0  0  0  0  0  0  0  0
  133.9170  133.7180  151.4120 C   0  0  0  0  0  3  0  0  0  0  0  0
  133.3370  133.2740  150.2220 C   0  0  0  0  0  3  0  0  0  0  0  0
  132.8820  134.2040  149.2870 C   0  0  0  0  0  0  0  0  0  0  0  0
  133.4700  136.9850  147.6690 C   0  0  0  0  0  1  0  0  0  0  0  0
  132.5110  136.4130  148.5490 O   0  0  0  0  0  0  0  0  0  0  0  0
  132.3210  133.7670  148.1150 O   0  0  0  0  0  0  0  0  0  0  0  0
  132.7380  133.9560  147.2970 H   0  0  0  0  0  0  0  0  0  0  0  0
  1 15  1  0  0  0  0
  1  3  1  0  0  0  0
  2  1  2  0  0  0  0
  3  4  1  0  0  0  0
  4  5  2  0  0  0  0
  6  5  1  0  0  0  0
  6  9  1  0  0  0  0
  7  6  2  0  0  0  0
  8  3  2  0  0  0  0
  8  7  1  0  0  0  0
  9 10  1  0  0  0  0
 11  7  1  0  0  0  0
 12 11  1  0  0  0  0
 13 14  1  0  0  0  0
 13  8  1  0  0  0  0
 16 17  1  0  0  0  0
 17 18  2  0  0  0  0
 18 15  1  0  0  0  0
 19 18  1  0  0  0  0
 20 19  2  0  0  0  0
 21 16  2  0  0  0  0
 21 20  1  0  0  0  0
 22 23  1  0  0  0  0
 23 16  1  0  0  0  0
 24 21  1  0  0  0  0
 25 24  1  0  0  0  0
M  END
>  <MODEL>
9

>  <REMARK>
 VINA RESULT:    -6.624      2.471      3.227
 INTER + INTRA:          -9.605
 INTER:                  -8.947
 INTRA:                  -0.658
 UNBOUND:                -0.658
  Name = CHEMBL1289797
  9 active torsions:
  status: ('A' for Active; 'I' for Inactive)
    1  A    between atoms: C_1  and  O_2
    2  A    between atoms: O_2  and  C_3
    3  A    between atoms: C_5  and  C_6
    4  A    between atoms: C_6  and  C_7
    5  A    between atoms: C_7  and  C_9
    6  A    between atoms: C_12  and  O_13
    7  A    between atoms: C_14  and  O_15
    8  A    between atoms: C_16  and  O_17
    9  A    between atoms: C_20  and  O_21
                            x       y       z     vdW  Elec       q    Type
                         _______ _______ _______ _____ _____    ______ ____

>  <TORSDO>
F 8

>  <SCORE>
-6.624

>  <RMSD_LB>
2.471

>  <RMSD_UB>
3.227

$$$$
