CHEMBL24475
 OpenBabel10172500263D

 20 20  0  0  0  0  0  0  0  0999 V2000
  146.3840  142.6820  149.9680 C   0  0  0  0  0  2  0  0  0  0  0  0
  147.0250  142.2540  151.2650 C   0  0  0  0  0  0  0  0  0  0  0  0
  148.4170  142.2080  151.3850 C   0  0  0  0  0  3  0  0  0  0  0  0
  149.0080  141.8300  152.5910 C   0  0  0  0  0  3  0  0  0  0  0  0
  148.2180  141.4800  153.6880 C   0  0  0  0  0  0  0  0  0  0  0  0
  146.8230  141.4920  153.5870 C   0  0  0  0  0  0  0  0  0  0  0  0
  146.2400  141.8820  152.3700 C   0  0  0  0  0  3  0  0  0  0  0  0
  148.8510  141.1280  154.8480 O   0  0  0  0  0  0  0  0  0  0  0  0
  148.4280  140.5570  155.4590 H   0  0  0  0  0  0  0  0  0  0  0  0
  145.9010  141.1630  154.5480 O   0  0  0  0  0  0  0  0  0  0  0  0
  145.1280  139.9890  154.3460 C   0  0  0  0  0  1  0  0  0  0  0  0
  146.6470  141.6920  148.8380 C   0  0  0  0  0  2  0  0  0  0  0  0
  145.8560  140.4150  149.0430 C   0  0  0  0  0  0  0  0  0  0  0  0
  144.6490  140.3460  148.8400 O   0  0  0  0  0  0  0  0  0  0  0  0
  146.5750  138.7850  150.7430 C   0  0  0  0  0  3  0  0  0  0  0  0
  146.6390  139.2190  149.4760 C   0  0  0  0  0  3  0  0  0  0  0  0
  147.3410  137.6010  151.2560 C   0  0  0  0  0  2  0  0  0  0  0  0
  146.7430  137.0760  152.5610 C   0  0  0  0  0  2  0  0  0  0  0  0
  149.0360  137.8220  153.2770 C   0  0  0  0  0  1  0  0  0  0  0  0
  147.6730  137.3400  153.7450 C   0  0  0  0  0  2  0  0  0  0  0  0
  1  2  1  0  0  0  0
  2  3  2  0  0  0  0
  2  7  1  0  0  0  0
  3  4  1  0  0  0  0
  4  5  2  0  0  0  0
  5  8  1  0  0  0  0
  6  5  1  0  0  0  0
  6 10  1  0  0  0  0
  7  6  2  0  0  0  0
  8  9  1  0  0  0  0
 11 10  1  0  0  0  0
 12 13  1  0  0  0  0
 12  1  1  0  0  0  0
 13 16  1  0  0  0  0
 14 13  2  0  0  0  0
 15 17  1  0  0  0  0
 16 15  2  0  0  0  0
 17 18  1  0  0  0  0
 18 20  1  0  0  0  0
 19 20  1  0  0  0  0
M  END
>  <MODEL>
1

>  <REMARK>
 VINA RESULT:    -6.380      0.000      0.000
 INTER + INTRA:         -10.141
 INTER:                  -8.753
 INTRA:                  -1.388
 UNBOUND:                -0.591
  Name = CHEMBL24475
  11 active torsions:
  status: ('A' for Active; 'I' for Inactive)
    1  A    between atoms: C_1  and  C_2
    2  A    between atoms: C_2  and  C_3
    3  A    between atoms: C_3  and  C_4
    4  A    between atoms: C_4  and  C_5
    5  A    between atoms: C_6  and  C_7
    6  A    between atoms: C_7  and  C_9
    7  A    between atoms: C_9  and  C_10
    8  A    between atoms: C_10  and  C_11
    9  A    between atoms: C_14  and  O_15
   10  A    between atoms: C_16  and  O_17
   11  A    between atoms: O_17  and  C_18
                            x       y       z     vdW  Elec       q    Type
                         _______ _______ _______ _____ _____    ______ ____

>  <TORSDO>
F 9

>  <SCORE>
-6.380

>  <RMSD_LB>
0.000

>  <RMSD_UB>
0.000

$$$$
CHEMBL24475
 OpenBabel10172500263D

 20 20  0  0  0  0  0  0  0  0999 V2000
  138.0220  136.0150  156.3150 C   0  0  0  0  0  2  0  0  0  0  0  0
  136.7410  135.6540  155.6050 C   0  0  0  0  0  0  0  0  0  0  0  0
  136.6890  135.6260  154.2080 C   0  0  0  0  0  3  0  0  0  0  0  0
  135.5090  135.2730  153.5530 C   0  0  0  0  0  3  0  0  0  0  0  0
  134.3620  134.9570  154.2840 C   0  0  0  0  0  0  0  0  0  0  0  0
  134.3780  135.0030  155.6820 C   0  0  0  0  0  0  0  0  0  0  0  0
  135.5750  135.3530  156.3290 C   0  0  0  0  0  3  0  0  0  0  0  0
  133.2360  134.6080  153.5900 O   0  0  0  0  0  0  0  0  0  0  0  0
  132.5600  134.1120  154.0100 H   0  0  0  0  0  0  0  0  0  0  0  0
  133.3480  134.7450  156.5500 O   0  0  0  0  0  0  0  0  0  0  0  0
  133.6800  134.4590  157.9010 C   0  0  0  0  0  1  0  0  0  0  0  0
  138.0410  137.4730  156.7680 C   0  0  0  0  0  2  0  0  0  0  0  0
  137.9880  138.4090  155.5770 C   0  0  0  0  0  0  0  0  0  0  0  0
  137.0730  139.2060  155.4040 O   0  0  0  0  0  0  0  0  0  0  0  0
  139.0920  138.9610  153.4460 C   0  0  0  0  0  3  0  0  0  0  0  0
  139.1420  138.3360  154.6320 C   0  0  0  0  0  3  0  0  0  0  0  0
  140.2040  138.9240  152.4390 C   0  0  0  0  0  2  0  0  0  0  0  0
  141.1130  137.7150  152.6610 C   0  0  0  0  0  2  0  0  0  0  0  0
  140.8910  136.9830  150.2660 C   0  0  0  0  0  1  0  0  0  0  0  0
  141.8590  137.3370  151.3830 C   0  0  0  0  0  2  0  0  0  0  0  0
  1 12  1  0  0  0  0
  2  1  1  0  0  0  0
  2  7  1  0  0  0  0
  3  2  2  0  0  0  0
  4  3  1  0  0  0  0
  4  5  2  0  0  0  0
  5  6  1  0  0  0  0
  6  7  2  0  0  0  0
  6 10  1  0  0  0  0
  8  9  1  0  0  0  0
  8  5  1  0  0  0  0
 10 11  1  0  0  0  0
 13 12  1  0  0  0  0
 14 13  2  0  0  0  0
 15 16  2  0  0  0  0
 16 13  1  0  0  0  0
 17 18  1  0  0  0  0
 17 15  1  0  0  0  0
 19 20  1  0  0  0  0
 20 18  1  0  0  0  0
M  END
>  <MODEL>
2

>  <REMARK>
 VINA RESULT:    -6.365      9.514     11.975
 INTER + INTRA:         -10.118
 INTER:                  -9.363
 INTRA:                  -0.755
 UNBOUND:                -0.591
  Name = CHEMBL24475
  11 active torsions:
  status: ('A' for Active; 'I' for Inactive)
    1  A    between atoms: C_1  and  C_2
    2  A    between atoms: C_2  and  C_3
    3  A    between atoms: C_3  and  C_4
    4  A    between atoms: C_4  and  C_5
    5  A    between atoms: C_6  and  C_7
    6  A    between atoms: C_7  and  C_9
    7  A    between atoms: C_9  and  C_10
    8  A    between atoms: C_10  and  C_11
    9  A    between atoms: C_14  and  O_15
   10  A    between atoms: C_16  and  O_17
   11  A    between atoms: O_17  and  C_18
                            x       y       z     vdW  Elec       q    Type
                         _______ _______ _______ _____ _____    ______ ____

>  <TORSDO>
F 9

>  <SCORE>
-6.365

>  <RMSD_LB>
9.514

>  <RMSD_UB>
11.975

$$$$
CHEMBL24475
 OpenBabel10172500263D

 20 20  0  0  0  0  0  0  0  0999 V2000
  142.0660  137.4620  151.1180 C   0  0  0  0  0  2  0  0  0  0  0  0
  140.8580  137.6960  151.9910 C   0  0  0  0  0  0  0  0  0  0  0  0
  139.5690  137.5690  151.4650 C   0  0  0  0  0  3  0  0  0  0  0  0
  138.4530  137.7660  152.2790 C   0  0  0  0  0  3  0  0  0  0  0  0
  138.6100  138.1060  153.6250 C   0  0  0  0  0  0  0  0  0  0  0  0
  139.8880  138.2660  154.1700 C   0  0  0  0  0  0  0  0  0  0  0  0
  141.0030  138.0570  153.3410 C   0  0  0  0  0  3  0  0  0  0  0  0
  137.4800  138.2780  154.3780 O   0  0  0  0  0  0  0  0  0  0  0  0
  136.9380  137.5410  154.5840 H   0  0  0  0  0  0  0  0  0  0  0  0
  140.2240  138.6130  155.4530 O   0  0  0  0  0  0  0  0  0  0  0  0
  140.3440  137.5700  156.4100 C   0  0  0  0  0  1  0  0  0  0  0  0
  143.3740  137.7350  151.8560 C   0  0  0  0  0  2  0  0  0  0  0  0
  144.2370  138.7120  151.0820 C   0  0  0  0  0  0  0  0  0  0  0  0
  144.7770  138.4190  150.0210 O   0  0  0  0  0  0  0  0  0  0  0  0
  145.3480  140.9020  151.2630 C   0  0  0  0  0  3  0  0  0  0  0  0
  144.3680  140.0800  151.6660 C   0  0  0  0  0  3  0  0  0  0  0  0
  145.5520  142.2840  151.8120 C   0  0  0  0  0  2  0  0  0  0  0  0
  146.3150  142.2480  153.1360 C   0  0  0  0  0  2  0  0  0  0  0  0
  148.5370  141.8370  154.2410 C   0  0  0  0  0  1  0  0  0  0  0  0
  147.7860  141.8930  152.9210 C   0  0  0  0  0  2  0  0  0  0  0  0
  1 12  1  0  0  0  0
  1  2  1  0  0  0  0
  2  7  1  0  0  0  0
  3  2  2  0  0  0  0
  3  4  1  0  0  0  0
  4  5  2  0  0  0  0
  5  6  1  0  0  0  0
  5  8  1  0  0  0  0
  6 10  1  0  0  0  0
  7  6  2  0  0  0  0
  8  9  1  0  0  0  0
 10 11  1  0  0  0  0
 13 16  1  0  0  0  0
 13 12  1  0  0  0  0
 14 13  2  0  0  0  0
 15 16  2  0  0  0  0
 15 17  1  0  0  0  0
 17 18  1  0  0  0  0
 20 18  1  0  0  0  0
 20 19  1  0  0  0  0
M  END
>  <MODEL>
3

>  <REMARK>
 VINA RESULT:    -6.288      4.796      6.916
 INTER + INTRA:         -10.003
 INTER:                  -9.400
 INTRA:                  -0.604
 UNBOUND:                -0.591
  Name = CHEMBL24475
  11 active torsions:
  status: ('A' for Active; 'I' for Inactive)
    1  A    between atoms: C_1  and  C_2
    2  A    between atoms: C_2  and  C_3
    3  A    between atoms: C_3  and  C_4
    4  A    between atoms: C_4  and  C_5
    5  A    between atoms: C_6  and  C_7
    6  A    between atoms: C_7  and  C_9
    7  A    between atoms: C_9  and  C_10
    8  A    between atoms: C_10  and  C_11
    9  A    between atoms: C_14  and  O_15
   10  A    between atoms: C_16  and  O_17
   11  A    between atoms: O_17  and  C_18
                            x       y       z     vdW  Elec       q    Type
                         _______ _______ _______ _____ _____    ______ ____

>  <TORSDO>
F 9

>  <SCORE>
-6.288

>  <RMSD_LB>
4.796

>  <RMSD_UB>
6.916

$$$$
CHEMBL24475
 OpenBabel10172500263D

 20 20  0  0  0  0  0  0  0  0999 V2000
  137.4720  135.8940  156.2740 C   0  0  0  0  0  2  0  0  0  0  0  0
  136.2950  135.5430  155.3960 C   0  0  0  0  0  0  0  0  0  0  0  0
  135.0680  135.1910  155.9660 C   0  0  0  0  0  3  0  0  0  0  0  0
  133.9760  134.8860  155.1530 C   0  0  0  0  0  3  0  0  0  0  0  0
  134.0990  134.9150  153.7620 C   0  0  0  0  0  0  0  0  0  0  0  0
  135.3220  135.2380  153.1660 C   0  0  0  0  0  0  0  0  0  0  0  0
  136.4110  135.5510  153.9960 C   0  0  0  0  0  3  0  0  0  0  0  0
  132.9920  134.6160  153.0150 O   0  0  0  0  0  0  0  0  0  0  0  0
  132.9350  134.9060  152.1250 H   0  0  0  0  0  0  0  0  0  0  0  0
  135.6250  135.2960  151.8300 O   0  0  0  0  0  0  0  0  0  0  0  0
  136.5520  136.2850  151.4050 C   0  0  0  0  0  1  0  0  0  0  0  0
  137.4130  137.3370  156.7690 C   0  0  0  0  0  2  0  0  0  0  0  0
  137.7450  138.3060  155.6510 C   0  0  0  0  0  0  0  0  0  0  0  0
  137.0730  139.3050  155.4220 O   0  0  0  0  0  0  0  0  0  0  0  0
  139.0490  138.3410  153.5630 C   0  0  0  0  0  3  0  0  0  0  0  0
  138.9710  137.9970  154.8570 C   0  0  0  0  0  3  0  0  0  0  0  0
  140.2400  138.0530  152.6960 C   0  0  0  0  0  2  0  0  0  0  0  0
  141.5450  138.2170  153.4750 C   0  0  0  0  0  2  0  0  0  0  0  0
  142.3390  137.2280  151.3030 C   0  0  0  0  0  1  0  0  0  0  0  0
  142.7200  137.5860  152.7310 C   0  0  0  0  0  2  0  0  0  0  0  0
  1 12  1  0  0  0  0
  2  3  1  0  0  0  0
  2  1  1  0  0  0  0
  4  3  2  0  0  0  0
  5  4  1  0  0  0  0
  6  5  2  0  0  0  0
  6  7  1  0  0  0  0
  7  2  2  0  0  0  0
  8  5  1  0  0  0  0
  9  8  1  0  0  0  0
 10  6  1  0  0  0  0
 11 10  1  0  0  0  0
 13 12  1  0  0  0  0
 14 13  2  0  0  0  0
 15 16  2  0  0  0  0
 16 13  1  0  0  0  0
 17 18  1  0  0  0  0
 17 15  1  0  0  0  0
 19 20  1  0  0  0  0
 20 18  1  0  0  0  0
M  END
>  <MODEL>
4

>  <REMARK>
 VINA RESULT:    -6.244      9.164     11.830
 INTER + INTRA:          -9.939
 INTER:                  -9.063
 INTRA:                  -0.875
 UNBOUND:                -0.591
  Name = CHEMBL24475
  11 active torsions:
  status: ('A' for Active; 'I' for Inactive)
    1  A    between atoms: C_1  and  C_2
    2  A    between atoms: C_2  and  C_3
    3  A    between atoms: C_3  and  C_4
    4  A    between atoms: C_4  and  C_5
    5  A    between atoms: C_6  and  C_7
    6  A    between atoms: C_7  and  C_9
    7  A    between atoms: C_9  and  C_10
    8  A    between atoms: C_10  and  C_11
    9  A    between atoms: C_14  and  O_15
   10  A    between atoms: C_16  and  O_17
   11  A    between atoms: O_17  and  C_18
                            x       y       z     vdW  Elec       q    Type
                         _______ _______ _______ _____ _____    ______ ____

>  <TORSDO>
F 9

>  <SCORE>
-6.244

>  <RMSD_LB>
9.164

>  <RMSD_UB>
11.830

$$$$
CHEMBL24475
 OpenBabel10172500263D

 20 20  0  0  0  0  0  0  0  0999 V2000
  146.3260  142.7370  150.0610 C   0  0  0  0  0  2  0  0  0  0  0  0
  146.9910  142.2520  151.3260 C   0  0  0  0  0  0  0  0  0  0  0  0
  148.3840  142.2510  151.4380 C   0  0  0  0  0  3  0  0  0  0  0  0
  148.9960  141.8210  152.6150 C   0  0  0  0  0  3  0  0  0  0  0  0
  148.2260  141.3720  153.6910 C   0  0  0  0  0  0  0  0  0  0  0  0
  146.8310  141.3380  153.5960 C   0  0  0  0  0  0  0  0  0  0  0  0
  146.2270  141.7810  152.4070 C   0  0  0  0  0  3  0  0  0  0  0  0
  148.8790  140.9720  154.8240 O   0  0  0  0  0  0  0  0  0  0  0  0
  149.1110  141.6010  155.4790 H   0  0  0  0  0  0  0  0  0  0  0  0
  145.9270  140.9140  154.5360 O   0  0  0  0  0  0  0  0  0  0  0  0
  145.0160  139.8910  154.1630 C   0  0  0  0  0  1  0  0  0  0  0  0
  146.6990  141.8870  148.8490 C   0  0  0  0  0  2  0  0  0  0  0  0
  146.1260  140.4880  148.9740 C   0  0  0  0  0  0  0  0  0  0  0  0
  146.7880  139.4810  148.7510 O   0  0  0  0  0  0  0  0  0  0  0  0
  144.0830  139.2120  149.4830 C   0  0  0  0  0  3  0  0  0  0  0  0
  144.7050  140.3980  149.4240 C   0  0  0  0  0  3  0  0  0  0  0  0
  142.6550  139.0410  149.9110 C   0  0  0  0  0  2  0  0  0  0  0  0
  142.4950  139.2780  151.4130 C   0  0  0  0  0  2  0  0  0  0  0  0
  140.8180  137.4280  151.7200 C   0  0  0  0  0  1  0  0  0  0  0  0
  142.1680  137.9790  152.1490 C   0  0  0  0  0  2  0  0  0  0  0  0
  1  2  1  0  0  0  0
  2  3  2  0  0  0  0
  2  7  1  0  0  0  0
  3  4  1  0  0  0  0
  4  5  2  0  0  0  0
  5  8  1  0  0  0  0
  6  5  1  0  0  0  0
  6 10  1  0  0  0  0
  7  6  2  0  0  0  0
  8  9  1  0  0  0  0
 11 10  1  0  0  0  0
 12 13  1  0  0  0  0
 12  1  1  0  0  0  0
 13 16  1  0  0  0  0
 14 13  2  0  0  0  0
 15 17  1  0  0  0  0
 16 15  2  0  0  0  0
 17 18  1  0  0  0  0
 18 20  1  0  0  0  0
 19 20  1  0  0  0  0
M  END
>  <MODEL>
5

>  <REMARK>
 VINA RESULT:    -5.919      2.183      3.011
 INTER + INTRA:          -9.452
 INTER:                  -8.595
 INTRA:                  -0.857
 UNBOUND:                -0.591
  Name = CHEMBL24475
  11 active torsions:
  status: ('A' for Active; 'I' for Inactive)
    1  A    between atoms: C_1  and  C_2
    2  A    between atoms: C_2  and  C_3
    3  A    between atoms: C_3  and  C_4
    4  A    between atoms: C_4  and  C_5
    5  A    between atoms: C_6  and  C_7
    6  A    between atoms: C_7  and  C_9
    7  A    between atoms: C_9  and  C_10
    8  A    between atoms: C_10  and  C_11
    9  A    between atoms: C_14  and  O_15
   10  A    between atoms: C_16  and  O_17
   11  A    between atoms: O_17  and  C_18
                            x       y       z     vdW  Elec       q    Type
                         _______ _______ _______ _____ _____    ______ ____

>  <TORSDO>
F 9

>  <SCORE>
-5.919

>  <RMSD_LB>
2.183

>  <RMSD_UB>
3.011

$$$$
CHEMBL24475
 OpenBabel10172500263D

 20 20  0  0  0  0  0  0  0  0999 V2000
  138.4630  137.8490  151.3330 C   0  0  0  0  0  2  0  0  0  0  0  0
  139.3270  137.9640  152.5650 C   0  0  0  0  0  0  0  0  0  0  0  0
  140.7170  137.8570  152.4660 C   0  0  0  0  0  3  0  0  0  0  0  0
  141.5170  137.9840  153.6020 C   0  0  0  0  0  3  0  0  0  0  0  0
  140.9370  138.2050  154.8540 C   0  0  0  0  0  0  0  0  0  0  0  0
  139.5470  138.2910  154.9850 C   0  0  0  0  0  0  0  0  0  0  0  0
  138.7550  138.1690  153.8310 C   0  0  0  0  0  3  0  0  0  0  0  0
  141.7690  138.3320  155.9320 O   0  0  0  0  0  0  0  0  0  0  0  0
  142.2540  139.1240  156.0610 H   0  0  0  0  0  0  0  0  0  0  0  0
  138.8140  138.4830  156.1280 O   0  0  0  0  0  0  0  0  0  0  0  0
  138.7410  137.4090  157.0540 C   0  0  0  0  0  1  0  0  0  0  0  0
  139.1110  136.9910  150.2500 C   0  0  0  0  0  2  0  0  0  0  0  0
  138.1070  136.0220  149.6560 C   0  0  0  0  0  0  0  0  0  0  0  0
  138.3380  135.3680  148.6460 O   0  0  0  0  0  0  0  0  0  0  0  0
  136.4210  134.6750  150.8420 C   0  0  0  0  0  3  0  0  0  0  0  0
  136.8170  135.8760  150.3960 C   0  0  0  0  0  3  0  0  0  0  0  0
  135.1340  134.4460  151.5800 C   0  0  0  0  0  2  0  0  0  0  0  0
  135.3780  134.2750  153.0790 C   0  0  0  0  0  2  0  0  0  0  0  0
  136.2850  135.6470  154.9820 C   0  0  0  0  0  1  0  0  0  0  0  0
  135.3170  135.6150  153.8100 C   0  0  0  0  0  2  0  0  0  0  0  0
  1  2  1  0  0  0  0
  2  7  1  0  0  0  0
  3  2  2  0  0  0  0
  3  4  1  0  0  0  0
  4  5  2  0  0  0  0
  5  6  1  0  0  0  0
  5  8  1  0  0  0  0
  6 10  1  0  0  0  0
  7  6  2  0  0  0  0
  8  9  1  0  0  0  0
 10 11  1  0  0  0  0
 12  1  1  0  0  0  0
 13 12  1  0  0  0  0
 13 16  1  0  0  0  0
 14 13  2  0  0  0  0
 15 17  1  0  0  0  0
 16 15  2  0  0  0  0
 17 18  1  0  0  0  0
 18 20  1  0  0  0  0
 20 19  1  0  0  0  0
M  END
>  <MODEL>
6

>  <REMARK>
 VINA RESULT:    -5.890      8.227      9.654
 INTER + INTRA:          -9.408
 INTER:                  -8.363
 INTRA:                  -1.045
 UNBOUND:                -0.591
  Name = CHEMBL24475
  11 active torsions:
  status: ('A' for Active; 'I' for Inactive)
    1  A    between atoms: C_1  and  C_2
    2  A    between atoms: C_2  and  C_3
    3  A    between atoms: C_3  and  C_4
    4  A    between atoms: C_4  and  C_5
    5  A    between atoms: C_6  and  C_7
    6  A    between atoms: C_7  and  C_9
    7  A    between atoms: C_9  and  C_10
    8  A    between atoms: C_10  and  C_11
    9  A    between atoms: C_14  and  O_15
   10  A    between atoms: C_16  and  O_17
   11  A    between atoms: O_17  and  C_18
                            x       y       z     vdW  Elec       q    Type
                         _______ _______ _______ _____ _____    ______ ____

>  <TORSDO>
F 9

>  <SCORE>
-5.890

>  <RMSD_LB>
8.227

>  <RMSD_UB>
9.654

$$$$
CHEMBL24475
 OpenBabel10172500263D

 20 20  0  0  0  0  0  0  0  0999 V2000
  145.0210  141.7390  151.1100 C   0  0  0  0  0  2  0  0  0  0  0  0
  146.4640  141.8630  151.5350 C   0  0  0  0  0  0  0  0  0  0  0  0
  147.4120  142.4130  150.6680 C   0  0  0  0  0  3  0  0  0  0  0  0
  148.7410  142.5460  151.0700 C   0  0  0  0  0  3  0  0  0  0  0  0
  149.1440  142.1170  152.3370 C   0  0  0  0  0  0  0  0  0  0  0  0
  148.2200  141.5390  153.2150 C   0  0  0  0  0  0  0  0  0  0  0  0
  146.8840  141.4200  152.8000 C   0  0  0  0  0  3  0  0  0  0  0  0
  150.4570  142.2810  152.6820 O   0  0  0  0  0  0  0  0  0  0  0  0
  151.0480  142.7060  152.0910 H   0  0  0  0  0  0  0  0  0  0  0  0
  148.4420  141.0510  154.4770 O   0  0  0  0  0  0  0  0  0  0  0  0
  147.9220  139.7660  154.7880 C   0  0  0  0  0  1  0  0  0  0  0  0
  144.4630  140.3400  151.3600 C   0  0  0  0  0  2  0  0  0  0  0  0
  143.7120  139.8340  150.1440 C   0  0  0  0  0  0  0  0  0  0  0  0
  144.0400  140.1200  148.9980 O   0  0  0  0  0  0  0  0  0  0  0  0
  142.4530  138.2920  151.5930 C   0  0  0  0  0  3  0  0  0  0  0  0
  142.5580  138.9250  150.4160 C   0  0  0  0  0  3  0  0  0  0  0  0
  141.3330  137.3540  151.9350 C   0  0  0  0  0  2  0  0  0  0  0  0
  140.0120  138.1050  152.1020 C   0  0  0  0  0  2  0  0  0  0  0  0
  138.1810  137.7110  153.7810 C   0  0  0  0  0  1  0  0  0  0  0  0
  139.6060  138.1980  153.5720 C   0  0  0  0  0  2  0  0  0  0  0  0
  1 12  1  0  0  0  0
  1  2  1  0  0  0  0
  2  7  1  0  0  0  0
  3  4  1  0  0  0  0
  3  2  2  0  0  0  0
  4  5  2  0  0  0  0
  5  8  1  0  0  0  0
  5  6  1  0  0  0  0
  6 10  1  0  0  0  0
  7  6  2  0  0  0  0
  9  8  1  0  0  0  0
 10 11  1  0  0  0  0
 13 16  1  0  0  0  0
 13 12  1  0  0  0  0
 14 13  2  0  0  0  0
 15 17  1  0  0  0  0
 16 15  2  0  0  0  0
 17 18  1  0  0  0  0
 18 20  1  0  0  0  0
 20 19  1  0  0  0  0
M  END
>  <MODEL>
7

>  <REMARK>
 VINA RESULT:    -5.805      3.359      4.356
 INTER + INTRA:          -9.281
 INTER:                  -8.769
 INTRA:                  -0.512
 UNBOUND:                -0.591
  Name = CHEMBL24475
  11 active torsions:
  status: ('A' for Active; 'I' for Inactive)
    1  A    between atoms: C_1  and  C_2
    2  A    between atoms: C_2  and  C_3
    3  A    between atoms: C_3  and  C_4
    4  A    between atoms: C_4  and  C_5
    5  A    between atoms: C_6  and  C_7
    6  A    between atoms: C_7  and  C_9
    7  A    between atoms: C_9  and  C_10
    8  A    between atoms: C_10  and  C_11
    9  A    between atoms: C_14  and  O_15
   10  A    between atoms: C_16  and  O_17
   11  A    between atoms: O_17  and  C_18
                            x       y       z     vdW  Elec       q    Type
                         _______ _______ _______ _____ _____    ______ ____

>  <TORSDO>
F 9

>  <SCORE>
-5.805

>  <RMSD_LB>
3.359

>  <RMSD_UB>
4.356

$$$$
CHEMBL24475
 OpenBabel10172500263D

 20 20  0  0  0  0  0  0  0  0999 V2000
  137.5610  137.2650  153.8770 C   0  0  0  0  0  2  0  0  0  0  0  0
  136.5870  136.4290  154.6720 C   0  0  0  0  0  0  0  0  0  0  0  0
  135.5270  135.7790  154.0330 C   0  0  0  0  0  3  0  0  0  0  0  0
  134.6400  134.9910  154.7660 C   0  0  0  0  0  3  0  0  0  0  0  0
  134.7920  134.8520  156.1480 C   0  0  0  0  0  0  0  0  0  0  0  0
  135.8280  135.5130  156.8160 C   0  0  0  0  0  0  0  0  0  0  0  0
  136.7190  136.2970  156.0640 C   0  0  0  0  0  3  0  0  0  0  0  0
  133.8980  134.0590  156.8140 O   0  0  0  0  0  0  0  0  0  0  0  0
  134.1960  133.2920  157.2650 H   0  0  0  0  0  0  0  0  0  0  0  0
  136.1120  135.5050  158.1570 O   0  0  0  0  0  0  0  0  0  0  0  0
  136.1950  136.7580  158.8220 C   0  0  0  0  0  1  0  0  0  0  0  0
  138.1240  138.4260  154.6920 C   0  0  0  0  0  2  0  0  0  0  0  0
  139.6040  138.6110  154.4180 C   0  0  0  0  0  0  0  0  0  0  0  0
  140.3850  139.0280  155.2650 O   0  0  0  0  0  0  0  0  0  0  0  0
  141.3280  137.7780  152.8700 C   0  0  0  0  0  3  0  0  0  0  0  0
  140.0750  138.2160  153.0560 C   0  0  0  0  0  3  0  0  0  0  0  0
  141.8780  137.3760  151.5320 C   0  0  0  0  0  2  0  0  0  0  0  0
  140.7550  137.0690  150.5410 C   0  0  0  0  0  2  0  0  0  0  0  0
  139.6280  138.6400  148.9320 C   0  0  0  0  0  1  0  0  0  0  0  0
  140.9070  137.8850  149.2580 C   0  0  0  0  0  2  0  0  0  0  0  0
  1  2  1  0  0  0  0
  1 12  1  0  0  0  0
  2  7  1  0  0  0  0
  3  2  2  0  0  0  0
  3  4  1  0  0  0  0
  4  5  2  0  0  0  0
  5  8  1  0  0  0  0
  5  6  1  0  0  0  0
  6 10  1  0  0  0  0
  7  6  2  0  0  0  0
  8  9  1  0  0  0  0
 10 11  1  0  0  0  0
 13 12  1  0  0  0  0
 13 14  2  0  0  0  0
 15 16  2  0  0  0  0
 16 13  1  0  0  0  0
 17 15  1  0  0  0  0
 18 17  1  0  0  0  0
 19 20  1  0  0  0  0
 20 18  1  0  0  0  0
M  END
>  <MODEL>
8

>  <REMARK>
 VINA RESULT:    -5.760      8.852     11.227
 INTER + INTRA:          -9.214
 INTER:                  -8.490
 INTRA:                  -0.724
 UNBOUND:                -0.591
  Name = CHEMBL24475
  11 active torsions:
  status: ('A' for Active; 'I' for Inactive)
    1  A    between atoms: C_1  and  C_2
    2  A    between atoms: C_2  and  C_3
    3  A    between atoms: C_3  and  C_4
    4  A    between atoms: C_4  and  C_5
    5  A    between atoms: C_6  and  C_7
    6  A    between atoms: C_7  and  C_9
    7  A    between atoms: C_9  and  C_10
    8  A    between atoms: C_10  and  C_11
    9  A    between atoms: C_14  and  O_15
   10  A    between atoms: C_16  and  O_17
   11  A    between atoms: O_17  and  C_18
                            x       y       z     vdW  Elec       q    Type
                         _______ _______ _______ _____ _____    ______ ____

>  <TORSDO>
F 9

>  <SCORE>
-5.760

>  <RMSD_LB>
8.852

>  <RMSD_UB>
11.227

$$$$
CHEMBL24475
 OpenBabel10172500263D

 20 20  0  0  0  0  0  0  0  0999 V2000
  138.6230  138.1760  151.2480 C   0  0  0  0  0  2  0  0  0  0  0  0
  139.8820  138.0330  152.0680 C   0  0  0  0  0  0  0  0  0  0  0  0
  141.0500  137.5290  151.4900 C   0  0  0  0  0  3  0  0  0  0  0  0
  142.2190  137.4170  152.2440 C   0  0  0  0  0  3  0  0  0  0  0  0
  142.2310  137.7930  153.5890 C   0  0  0  0  0  0  0  0  0  0  0  0
  141.0690  138.2760  154.2000 C   0  0  0  0  0  0  0  0  0  0  0  0
  139.9020  138.3910  153.4260 C   0  0  0  0  0  3  0  0  0  0  0  0
  143.4070  137.6710  154.2780 O   0  0  0  0  0  0  0  0  0  0  0  0
  144.1830  137.3870  153.8350 H   0  0  0  0  0  0  0  0  0  0  0  0
  140.8970  138.6690  155.5020 O   0  0  0  0  0  0  0  0  0  0  0  0
  140.3150  137.7370  156.4020 C   0  0  0  0  0  1  0  0  0  0  0  0
  137.9750  136.8280  150.9450 C   0  0  0  0  0  2  0  0  0  0  0  0
  136.8490  136.5400  151.9180 C   0  0  0  0  0  0  0  0  0  0  0  0
  136.7880  137.0540  153.0290 O   0  0  0  0  0  0  0  0  0  0  0  0
  135.2510  135.7650  150.2130 C   0  0  0  0  0  3  0  0  0  0  0  0
  135.7820  135.6120  151.4340 C   0  0  0  0  0  3  0  0  0  0  0  0
  134.1680  134.8840  149.6610 C   0  0  0  0  0  2  0  0  0  0  0  0
  134.3780  133.4260  150.0700 C   0  0  0  0  0  2  0  0  0  0  0  0
  134.4820  133.1800  147.5690 C   0  0  0  0  0  1  0  0  0  0  0  0
  134.1800  132.4820  148.8850 C   0  0  0  0  0  2  0  0  0  0  0  0
  1  2  1  0  0  0  0
  2  7  1  0  0  0  0
  3  2  2  0  0  0  0
  3  4  1  0  0  0  0
  4  5  2  0  0  0  0
  5  6  1  0  0  0  0
  5  8  1  0  0  0  0
  6 10  1  0  0  0  0
  7  6  2  0  0  0  0
  9  8  1  0  0  0  0
 10 11  1  0  0  0  0
 12  1  1  0  0  0  0
 12 13  1  0  0  0  0
 13 14  2  0  0  0  0
 15 16  2  0  0  0  0
 16 13  1  0  0  0  0
 17 18  1  0  0  0  0
 17 15  1  0  0  0  0
 19 20  1  0  0  0  0
 20 18  1  0  0  0  0
M  END
>  <MODEL>
9

>  <REMARK>
 VINA RESULT:    -5.608      8.892     10.178
 INTER + INTRA:          -8.986
 INTER:                  -8.395
 INTRA:                  -0.591
 UNBOUND:                -0.591
  Name = CHEMBL24475
  11 active torsions:
  status: ('A' for Active; 'I' for Inactive)
    1  A    between atoms: C_1  and  C_2
    2  A    between atoms: C_2  and  C_3
    3  A    between atoms: C_3  and  C_4
    4  A    between atoms: C_4  and  C_5
    5  A    between atoms: C_6  and  C_7
    6  A    between atoms: C_7  and  C_9
    7  A    between atoms: C_9  and  C_10
    8  A    between atoms: C_10  and  C_11
    9  A    between atoms: C_14  and  O_15
   10  A    between atoms: C_16  and  O_17
   11  A    between atoms: O_17  and  C_18
                            x       y       z     vdW  Elec       q    Type
                         _______ _______ _______ _____ _____    ______ ____

>  <TORSDO>
F 9

>  <SCORE>
-5.608

>  <RMSD_LB>
8.892

>  <RMSD_UB>
10.178

$$$$
