CHEMBL76196
 OpenBabel10172500373D

 21 21  0  0  0  0  0  0  0  0999 V2000
  146.8270  141.9460  154.0590 C   0  0  0  0  0  2  0  0  0  0  0  0
  146.6110  141.9100  152.5670 C   0  0  0  0  0  0  0  0  0  0  0  0
  147.6120  142.3390  151.6860 C   0  0  0  0  0  3  0  0  0  0  0  0
  147.4120  142.2870  150.3040 C   0  0  0  0  0  3  0  0  0  0  0  0
  146.2120  141.7960  149.7810 C   0  0  0  0  0  0  0  0  0  0  0  0
  145.2030  141.3440  150.6360 C   0  0  0  0  0  0  0  0  0  0  0  0
  145.4140  141.4140  152.0240 C   0  0  0  0  0  3  0  0  0  0  0  0
  146.0680  141.7680  148.4210 O   0  0  0  0  0  0  0  0  0  0  0  0
  145.4090  142.2910  148.0080 H   0  0  0  0  0  0  0  0  0  0  0  0
  143.9840  140.8150  150.3000 O   0  0  0  0  0  0  0  0  0  0  0  0
  143.3580  139.9410  151.2320 C   0  0  0  0  0  1  0  0  0  0  0  0
  147.8360  139.8170  154.7410 C   0  0  0  0  0  0  0  0  0  0  0  0
  148.9520  140.1610  154.3270 O   0  0  0  0  0  0  0  0  0  0  0  0
  146.7330  140.6390  154.6730 N   0  0  0  0  0  0  0  0  0  0  0  0
  145.8740  140.3350  155.0440 H   0  0  0  0  0  0  0  0  0  0  0  0
  147.5980  138.4680  155.4240 C   0  0  0  0  0  2  0  0  0  0  0  0
  147.5230  137.4170  154.4650 O   0  0  0  0  0  0  0  0  0  0  0  0
  146.1880  137.1960  154.0000 C   0  0  0  0  0  2  0  0  0  0  0  0
  146.2570  136.5220  152.6310 C   0  0  0  0  0  2  0  0  0  0  0  0
  145.0660  136.2540  150.6190 C   0  0  0  0  0  1  0  0  0  0  0  0
  145.2700  137.0770  151.7620 O   0  0  0  0  0  0  0  0  0  0  0  0
  1 14  1  0  0  0  0
  2  1  1  0  0  0  0
  3  2  2  0  0  0  0
  4  3  1  0  0  0  0
  5  4  2  0  0  0  0
  5  6  1  0  0  0  0
  6  7  2  0  0  0  0
  7  2  1  0  0  0  0
  8  5  1  0  0  0  0
  9  8  1  0  0  0  0
 10  6  1  0  0  0  0
 10 11  1  0  0  0  0
 12 16  1  0  0  0  0
 13 12  2  0  0  0  0
 14 12  1  0  0  0  0
 14 15  1  0  0  0  0
 17 16  1  0  0  0  0
 18 17  1  0  0  0  0
 19 18  1  0  0  0  0
 20 21  1  0  0  0  0
 21 19  1  0  0  0  0
M  END
>  <MODEL>
1

>  <REMARK>
 VINA RESULT:    -5.575      0.000      0.000
 INTER + INTRA:          -8.928
 INTER:                  -8.348
 INTRA:                  -0.580
 UNBOUND:                -0.583
  Name = CHEMBL76196
  11 active torsions:
  status: ('A' for Active; 'I' for Inactive)
    1  A    between atoms: C_1  and  O_2
    2  A    between atoms: O_2  and  C_3
    3  A    between atoms: C_3  and  C_4
    4  A    between atoms: C_4  and  O_5
    5  A    between atoms: O_5  and  C_6
    6  A    between atoms: C_6  and  C_7
    7  A    between atoms: N_9  and  C_10
    8  A    between atoms: C_10  and  C_11
    9  A    between atoms: C_14  and  O_15
   10  A    between atoms: C_16  and  O_17
   11  A    between atoms: O_17  and  C_18
                            x       y       z     vdW  Elec       q    Type
                         _______ _______ _______ _____ _____    ______ ____

>  <TORSDO>
F 9

>  <SCORE>
-5.575

>  <RMSD_LB>
0.000

>  <RMSD_UB>
0.000

$$$$
CHEMBL76196
 OpenBabel10172500373D

 21 21  0  0  0  0  0  0  0  0999 V2000
  146.7330  142.5660  149.6180 C   0  0  0  0  0  2  0  0  0  0  0  0
  147.3060  142.2530  150.9770 C   0  0  0  0  0  0  0  0  0  0  0  0
  148.6880  142.3050  151.2030 C   0  0  0  0  0  3  0  0  0  0  0  0
  149.2110  142.0310  152.4690 C   0  0  0  0  0  3  0  0  0  0  0  0
  148.3600  141.7110  153.5320 C   0  0  0  0  0  0  0  0  0  0  0  0
  146.9760  141.6700  153.3400 C   0  0  0  0  0  0  0  0  0  0  0  0
  146.4660  141.9360  152.0570 C   0  0  0  0  0  3  0  0  0  0  0  0
  148.9250  141.4500  154.7500 O   0  0  0  0  0  0  0  0  0  0  0  0
  149.8220  141.6710  154.9090 H   0  0  0  0  0  0  0  0  0  0  0  0
  146.0020  141.4000  154.2650 O   0  0  0  0  0  0  0  0  0  0  0  0
  145.3710  140.1260  154.2140 C   0  0  0  0  0  1  0  0  0  0  0  0
  146.1630  141.2570  147.6230 C   0  0  0  0  0  0  0  0  0  0  0  0
  146.7610  142.0450  146.8790 O   0  0  0  0  0  0  0  0  0  0  0  0
  146.1150  141.4180  148.9900 N   0  0  0  0  0  0  0  0  0  0  0  0
  145.6550  140.7470  149.5440 H   0  0  0  0  0  0  0  0  0  0  0  0
  145.4760  139.9940  147.0950 C   0  0  0  0  0  2  0  0  0  0  0  0
  144.0780  140.0240  147.3640 O   0  0  0  0  0  0  0  0  0  0  0  0
  143.6530  138.9210  148.1690 C   0  0  0  0  0  2  0  0  0  0  0  0
  144.7590  137.8680  148.1710 C   0  0  0  0  0  2  0  0  0  0  0  0
  144.7540  138.3930  150.4650 C   0  0  0  0  0  1  0  0  0  0  0  0
  144.9620  137.3730  149.4950 O   0  0  0  0  0  0  0  0  0  0  0  0
  1  2  1  0  0  0  0
  2  3  2  0  0  0  0
  2  7  1  0  0  0  0
  3  4  1  0  0  0  0
  4  5  2  0  0  0  0
  5  8  1  0  0  0  0
  6  5  1  0  0  0  0
  6 10  1  0  0  0  0
  7  6  2  0  0  0  0
  8  9  1  0  0  0  0
 11 10  1  0  0  0  0
 12 14  1  0  0  0  0
 13 12  2  0  0  0  0
 14 15  1  0  0  0  0
 14  1  1  0  0  0  0
 16 17  1  0  0  0  0
 16 12  1  0  0  0  0
 17 18  1  0  0  0  0
 18 19  1  0  0  0  0
 19 21  1  0  0  0  0
 21 20  1  0  0  0  0
M  END
>  <MODEL>
2

>  <REMARK>
 VINA RESULT:    -5.377      2.544      5.231
 INTER + INTRA:          -8.633
 INTER:                  -7.951
 INTRA:                  -0.682
 UNBOUND:                -0.583
  Name = CHEMBL76196
  11 active torsions:
  status: ('A' for Active; 'I' for Inactive)
    1  A    between atoms: C_1  and  O_2
    2  A    between atoms: O_2  and  C_3
    3  A    between atoms: C_3  and  C_4
    4  A    between atoms: C_4  and  O_5
    5  A    between atoms: O_5  and  C_6
    6  A    between atoms: C_6  and  C_7
    7  A    between atoms: N_9  and  C_10
    8  A    between atoms: C_10  and  C_11
    9  A    between atoms: C_14  and  O_15
   10  A    between atoms: C_16  and  O_17
   11  A    between atoms: O_17  and  C_18
                            x       y       z     vdW  Elec       q    Type
                         _______ _______ _______ _____ _____    ______ ____

>  <TORSDO>
F 9

>  <SCORE>
-5.377

>  <RMSD_LB>
2.544

>  <RMSD_UB>
5.231

$$$$
CHEMBL76196
 OpenBabel10172500373D

 21 21  0  0  0  0  0  0  0  0999 V2000
  138.4840  137.5000  151.2800 C   0  0  0  0  0  2  0  0  0  0  0  0
  139.3970  137.7600  152.4510 C   0  0  0  0  0  0  0  0  0  0  0  0
  140.7880  137.7790  152.2870 C   0  0  0  0  0  3  0  0  0  0  0  0
  141.6280  138.0380  153.3730 C   0  0  0  0  0  3  0  0  0  0  0  0
  141.0900  138.2930  154.6380 C   0  0  0  0  0  0  0  0  0  0  0  0
  139.7050  138.3000  154.8270 C   0  0  0  0  0  0  0  0  0  0  0  0
  138.8730  138.0250  153.7270 C   0  0  0  0  0  3  0  0  0  0  0  0
  141.9580  138.5400  155.6670 O   0  0  0  0  0  0  0  0  0  0  0  0
  142.0100  139.3970  156.0420 H   0  0  0  0  0  0  0  0  0  0  0  0
  139.0110  138.5510  155.9820 O   0  0  0  0  0  0  0  0  0  0  0  0
  138.8240  137.4750  156.8940 C   0  0  0  0  0  1  0  0  0  0  0  0
  136.6680  135.8910  150.9160 C   0  0  0  0  0  0  0  0  0  0  0  0
  137.2220  135.4240  149.9120 O   0  0  0  0  0  0  0  0  0  0  0  0
  137.2260  136.9010  151.6700 N   0  0  0  0  0  0  0  0  0  0  0  0
  136.7640  137.2180  152.4790 H   0  0  0  0  0  0  0  0  0  0  0  0
  135.3410  135.3430  151.4480 C   0  0  0  0  0  2  0  0  0  0  0  0
  134.6520  136.3290  152.2110 O   0  0  0  0  0  0  0  0  0  0  0  0
  134.1590  135.8150  153.4510 C   0  0  0  0  0  2  0  0  0  0  0  0
  134.0590  134.2950  153.3410 C   0  0  0  0  0  2  0  0  0  0  0  0
  134.6830  134.6620  155.5800 C   0  0  0  0  0  1  0  0  0  0  0  0
  134.2700  133.6970  154.6200 O   0  0  0  0  0  0  0  0  0  0  0  0
  1 14  1  0  0  0  0
  1  2  1  0  0  0  0
  2  7  1  0  0  0  0
  3  2  2  0  0  0  0
  3  4  1  0  0  0  0
  4  5  2  0  0  0  0
  5  6  1  0  0  0  0
  5  8  1  0  0  0  0
  6 10  1  0  0  0  0
  7  6  2  0  0  0  0
  8  9  1  0  0  0  0
 10 11  1  0  0  0  0
 12 16  1  0  0  0  0
 12 14  1  0  0  0  0
 13 12  2  0  0  0  0
 14 15  1  0  0  0  0
 16 17  1  0  0  0  0
 17 18  1  0  0  0  0
 19 18  1  0  0  0  0
 19 21  1  0  0  0  0
 21 20  1  0  0  0  0
M  END
>  <MODEL>
3

>  <REMARK>
 VINA RESULT:    -5.344      8.058     10.372
 INTER + INTRA:          -8.583
 INTER:                  -8.006
 INTRA:                  -0.577
 UNBOUND:                -0.583
  Name = CHEMBL76196
  11 active torsions:
  status: ('A' for Active; 'I' for Inactive)
    1  A    between atoms: C_1  and  O_2
    2  A    between atoms: O_2  and  C_3
    3  A    between atoms: C_3  and  C_4
    4  A    between atoms: C_4  and  O_5
    5  A    between atoms: O_5  and  C_6
    6  A    between atoms: C_6  and  C_7
    7  A    between atoms: N_9  and  C_10
    8  A    between atoms: C_10  and  C_11
    9  A    between atoms: C_14  and  O_15
   10  A    between atoms: C_16  and  O_17
   11  A    between atoms: O_17  and  C_18
                            x       y       z     vdW  Elec       q    Type
                         _______ _______ _______ _____ _____    ______ ____

>  <TORSDO>
F 9

>  <SCORE>
-5.344

>  <RMSD_LB>
8.058

>  <RMSD_UB>
10.372

$$$$
CHEMBL76196
 OpenBabel10172500373D

 21 21  0  0  0  0  0  0  0  0999 V2000
  137.3510  137.4540  156.3950 C   0  0  0  0  0  2  0  0  0  0  0  0
  136.4450  136.4520  155.7260 C   0  0  0  0  0  0  0  0  0  0  0  0
  136.5430  136.2000  154.3520 C   0  0  0  0  0  3  0  0  0  0  0  0
  135.7120  135.2580  153.7410 C   0  0  0  0  0  3  0  0  0  0  0  0
  134.7770  134.5450  154.4960 C   0  0  0  0  0  0  0  0  0  0  0  0
  134.6690  134.7620  155.8730 C   0  0  0  0  0  0  0  0  0  0  0  0
  135.5040  135.7220  156.4710 C   0  0  0  0  0  3  0  0  0  0  0  0
  133.9880  133.6340  153.8480 O   0  0  0  0  0  0  0  0  0  0  0  0
  133.3070  133.1880  154.3120 H   0  0  0  0  0  0  0  0  0  0  0  0
  133.8320  134.1420  156.7640 O   0  0  0  0  0  0  0  0  0  0  0  0
  133.8780  134.5610  158.1220 C   0  0  0  0  0  1  0  0  0  0  0  0
  139.5950  138.1200  155.6630 C   0  0  0  0  0  0  0  0  0  0  0  0
  140.1310  137.5190  156.6050 O   0  0  0  0  0  0  0  0  0  0  0  0
  138.2330  138.1260  155.4640 N   0  0  0  0  0  0  0  0  0  0  0  0
  137.8550  138.5910  154.6830 H   0  0  0  0  0  0  0  0  0  0  0  0
  140.4090  138.8610  154.5980 C   0  0  0  0  0  2  0  0  0  0  0  0
  141.4690  139.6050  155.1920 O   0  0  0  0  0  0  0  0  0  0  0  0
  142.7530  139.2220  154.6900 C   0  0  0  0  0  2  0  0  0  0  0  0
  142.5920  138.7700  153.2400 C   0  0  0  0  0  2  0  0  0  0  0  0
  143.3370  137.2300  151.6250 C   0  0  0  0  0  1  0  0  0  0  0  0
  143.4310  137.6440  152.9830 O   0  0  0  0  0  0  0  0  0  0  0  0
  2  1  1  0  0  0  0
  2  7  1  0  0  0  0
  3  2  2  0  0  0  0
  4  3  1  0  0  0  0
  4  5  2  0  0  0  0
  5  6  1  0  0  0  0
  6  7  2  0  0  0  0
  6 10  1  0  0  0  0
  8  9  1  0  0  0  0
  8  5  1  0  0  0  0
 10 11  1  0  0  0  0
 12 13  2  0  0  0  0
 14 12  1  0  0  0  0
 14  1  1  0  0  0  0
 15 14  1  0  0  0  0
 16 17  1  0  0  0  0
 16 12  1  0  0  0  0
 18 17  1  0  0  0  0
 19 18  1  0  0  0  0
 20 21  1  0  0  0  0
 21 19  1  0  0  0  0
M  END
>  <MODEL>
4

>  <REMARK>
 VINA RESULT:    -5.292      8.500     10.612
 INTER + INTRA:          -8.506
 INTER:                  -8.055
 INTRA:                  -0.450
 UNBOUND:                -0.583
  Name = CHEMBL76196
  11 active torsions:
  status: ('A' for Active; 'I' for Inactive)
    1  A    between atoms: C_1  and  O_2
    2  A    between atoms: O_2  and  C_3
    3  A    between atoms: C_3  and  C_4
    4  A    between atoms: C_4  and  O_5
    5  A    between atoms: O_5  and  C_6
    6  A    between atoms: C_6  and  C_7
    7  A    between atoms: N_9  and  C_10
    8  A    between atoms: C_10  and  C_11
    9  A    between atoms: C_14  and  O_15
   10  A    between atoms: C_16  and  O_17
   11  A    between atoms: O_17  and  C_18
                            x       y       z     vdW  Elec       q    Type
                         _______ _______ _______ _____ _____    ______ ____

>  <TORSDO>
F 9

>  <SCORE>
-5.292

>  <RMSD_LB>
8.500

>  <RMSD_UB>
10.612

$$$$
CHEMBL76196
 OpenBabel10172500373D

 21 21  0  0  0  0  0  0  0  0999 V2000
  142.6120  137.4250  151.5510 C   0  0  0  0  0  2  0  0  0  0  0  0
  141.3240  137.7080  152.2820 C   0  0  0  0  0  0  0  0  0  0  0  0
  140.0890  137.6000  151.6310 C   0  0  0  0  0  3  0  0  0  0  0  0
  138.8980  137.8480  152.3190 C   0  0  0  0  0  3  0  0  0  0  0  0
  138.9230  138.1960  153.6720 C   0  0  0  0  0  0  0  0  0  0  0  0
  140.1400  138.2940  154.3530 C   0  0  0  0  0  0  0  0  0  0  0  0
  141.3300  138.0540  153.6440 C   0  0  0  0  0  3  0  0  0  0  0  0
  137.7290  138.4290  154.2970 O   0  0  0  0  0  0  0  0  0  0  0  0
  137.7060  138.9050  155.1040 H   0  0  0  0  0  0  0  0  0  0  0  0
  140.3490  138.5990  155.6730 O   0  0  0  0  0  0  0  0  0  0  0  0
  140.3430  137.5300  156.6120 C   0  0  0  0  0  1  0  0  0  0  0  0
  144.9400  138.1900  151.6530 C   0  0  0  0  0  0  0  0  0  0  0  0
  145.0230  138.2480  150.4190 O   0  0  0  0  0  0  0  0  0  0  0  0
  143.7840  137.8170  152.3030 N   0  0  0  0  0  0  0  0  0  0  0  0
  143.7560  137.8170  153.2870 H   0  0  0  0  0  0  0  0  0  0  0  0
  146.0990  138.5890  152.5710 C   0  0  0  0  0  2  0  0  0  0  0  0
  145.6270  139.3150  153.7020 O   0  0  0  0  0  0  0  0  0  0  0  0
  146.5990  139.3870  154.7490 C   0  0  0  0  0  2  0  0  0  0  0  0
  147.9910  139.3440  154.1230 C   0  0  0  0  0  2  0  0  0  0  0  0
  148.2750  141.6740  154.2990 C   0  0  0  0  0  1  0  0  0  0  0  0
  148.7980  140.3980  154.6500 O   0  0  0  0  0  0  0  0  0  0  0  0
  1  2  1  0  0  0  0
  1 14  1  0  0  0  0
  2  7  1  0  0  0  0
  3  2  2  0  0  0  0
  3  4  1  0  0  0  0
  4  5  2  0  0  0  0
  5  8  1  0  0  0  0
  5  6  1  0  0  0  0
  6 10  1  0  0  0  0
  7  6  2  0  0  0  0
  8  9  1  0  0  0  0
 10 11  1  0  0  0  0
 12 14  1  0  0  0  0
 12 16  1  0  0  0  0
 13 12  2  0  0  0  0
 14 15  1  0  0  0  0
 16 17  1  0  0  0  0
 17 18  1  0  0  0  0
 19 21  1  0  0  0  0
 19 18  1  0  0  0  0
 20 21  1  0  0  0  0
M  END
>  <MODEL>
5

>  <REMARK>
 VINA RESULT:    -5.163      4.069      6.614
 INTER + INTRA:          -8.312
 INTER:                  -7.808
 INTRA:                  -0.504
 UNBOUND:                -0.583
  Name = CHEMBL76196
  11 active torsions:
  status: ('A' for Active; 'I' for Inactive)
    1  A    between atoms: C_1  and  O_2
    2  A    between atoms: O_2  and  C_3
    3  A    between atoms: C_3  and  C_4
    4  A    between atoms: C_4  and  O_5
    5  A    between atoms: O_5  and  C_6
    6  A    between atoms: C_6  and  C_7
    7  A    between atoms: N_9  and  C_10
    8  A    between atoms: C_10  and  C_11
    9  A    between atoms: C_14  and  O_15
   10  A    between atoms: C_16  and  O_17
   11  A    between atoms: O_17  and  C_18
                            x       y       z     vdW  Elec       q    Type
                         _______ _______ _______ _____ _____    ______ ____

>  <TORSDO>
F 9

>  <SCORE>
-5.163

>  <RMSD_LB>
4.069

>  <RMSD_UB>
6.614

$$$$
CHEMBL76196
 OpenBabel10172500373D

 21 21  0  0  0  0  0  0  0  0999 V2000
  138.5300  137.5500  151.4590 C   0  0  0  0  0  2  0  0  0  0  0  0
  139.3800  137.8900  152.6570 C   0  0  0  0  0  0  0  0  0  0  0  0
  138.7920  138.2310  153.8810 C   0  0  0  0  0  3  0  0  0  0  0  0
  139.5860  138.5280  154.9920 C   0  0  0  0  0  3  0  0  0  0  0  0
  140.9800  138.4790  154.8980 C   0  0  0  0  0  0  0  0  0  0  0  0
  141.5940  138.1250  153.6940 C   0  0  0  0  0  0  0  0  0  0  0  0
  140.7820  137.8400  152.5820 C   0  0  0  0  0  3  0  0  0  0  0  0
  141.7090  138.7810  156.0160 O   0  0  0  0  0  0  0  0  0  0  0  0
  141.4280  138.4760  156.8560 H   0  0  0  0  0  0  0  0  0  0  0  0
  142.9340  138.0050  153.4310 O   0  0  0  0  0  0  0  0  0  0  0  0
  143.6610  139.1900  153.1280 C   0  0  0  0  0  1  0  0  0  0  0  0
  136.6780  135.9970  151.0400 C   0  0  0  0  0  0  0  0  0  0  0  0
  137.2310  135.5360  150.0340 O   0  0  0  0  0  0  0  0  0  0  0  0
  137.2510  136.9770  151.8200 N   0  0  0  0  0  0  0  0  0  0  0  0
  136.7880  137.2900  152.6300 H   0  0  0  0  0  0  0  0  0  0  0  0
  135.3290  135.4750  151.5440 C   0  0  0  0  0  2  0  0  0  0  0  0
  134.8030  136.3200  152.5630 O   0  0  0  0  0  0  0  0  0  0  0  0
  133.9230  135.6250  153.4500 C   0  0  0  0  0  2  0  0  0  0  0  0
  134.2980  134.1450  153.4440 C   0  0  0  0  0  2  0  0  0  0  0  0
  134.5610  134.6250  155.7320 C   0  0  0  0  0  1  0  0  0  0  0  0
  134.2520  133.6220  154.7720 O   0  0  0  0  0  0  0  0  0  0  0  0
  1 14  1  0  0  0  0
  1  2  1  0  0  0  0
  2  3  1  0  0  0  0
  3  4  2  0  0  0  0
  5  4  1  0  0  0  0
  5  8  1  0  0  0  0
  6  5  2  0  0  0  0
  7  2  2  0  0  0  0
  7  6  1  0  0  0  0
  8  9  1  0  0  0  0
 10  6  1  0  0  0  0
 11 10  1  0  0  0  0
 12 16  1  0  0  0  0
 12 14  1  0  0  0  0
 13 12  2  0  0  0  0
 14 15  1  0  0  0  0
 16 17  1  0  0  0  0
 17 18  1  0  0  0  0
 19 18  1  0  0  0  0
 19 21  1  0  0  0  0
 21 20  1  0  0  0  0
M  END
>  <MODEL>
6

>  <REMARK>
 VINA RESULT:    -5.140      7.757     10.176
 INTER + INTRA:          -8.278
 INTER:                  -7.779
 INTRA:                  -0.499
 UNBOUND:                -0.583
  Name = CHEMBL76196
  11 active torsions:
  status: ('A' for Active; 'I' for Inactive)
    1  A    between atoms: C_1  and  O_2
    2  A    between atoms: O_2  and  C_3
    3  A    between atoms: C_3  and  C_4
    4  A    between atoms: C_4  and  O_5
    5  A    between atoms: O_5  and  C_6
    6  A    between atoms: C_6  and  C_7
    7  A    between atoms: N_9  and  C_10
    8  A    between atoms: C_10  and  C_11
    9  A    between atoms: C_14  and  O_15
   10  A    between atoms: C_16  and  O_17
   11  A    between atoms: O_17  and  C_18
                            x       y       z     vdW  Elec       q    Type
                         _______ _______ _______ _____ _____    ______ ____

>  <TORSDO>
F 9

>  <SCORE>
-5.140

>  <RMSD_LB>
7.757

>  <RMSD_UB>
10.176

$$$$
CHEMBL76196
 OpenBabel10172500373D

 21 21  0  0  0  0  0  0  0  0999 V2000
  142.9740  137.1330  151.5160 C   0  0  0  0  0  2  0  0  0  0  0  0
  141.7700  137.7030  152.2230 C   0  0  0  0  0  0  0  0  0  0  0  0
  140.4800  137.5080  151.7140 C   0  0  0  0  0  3  0  0  0  0  0  0
  139.3670  138.0240  152.3820 C   0  0  0  0  0  3  0  0  0  0  0  0
  139.5260  138.7340  153.5760 C   0  0  0  0  0  0  0  0  0  0  0  0
  140.8000  138.9280  154.1170 C   0  0  0  0  0  0  0  0  0  0  0  0
  141.9110  138.4130  153.4260 C   0  0  0  0  0  3  0  0  0  0  0  0
  138.4020  139.2180  154.1890 O   0  0  0  0  0  0  0  0  0  0  0  0
  138.4640  139.9500  154.7710 H   0  0  0  0  0  0  0  0  0  0  0  0
  141.1360  139.5730  155.2790 O   0  0  0  0  0  0  0  0  0  0  0  0
  142.5140  139.6520  155.6220 C   0  0  0  0  0  1  0  0  0  0  0  0
  145.1690  138.2170  151.6720 C   0  0  0  0  0  0  0  0  0  0  0  0
  145.0070  138.8040  150.5940 O   0  0  0  0  0  0  0  0  0  0  0  0
  144.2130  137.3900  152.2190 N   0  0  0  0  0  0  0  0  0  0  0  0
  144.3740  136.9700  153.0950 H   0  0  0  0  0  0  0  0  0  0  0  0
  146.4260  138.4080  152.5260 C   0  0  0  0  0  2  0  0  0  0  0  0
  146.8170  139.7770  152.5580 O   0  0  0  0  0  0  0  0  0  0  0  0
  146.1640  140.5080  153.6000 C   0  0  0  0  0  2  0  0  0  0  0  0
  146.5770  141.9750  153.4950 C   0  0  0  0  0  2  0  0  0  0  0  0
  145.5280  142.5500  151.4690 C   0  0  0  0  0  1  0  0  0  0  0  0
  146.7710  142.3320  152.1270 O   0  0  0  0  0  0  0  0  0  0  0  0
  1 14  1  0  0  0  0
  1  2  1  0  0  0  0
  2  7  1  0  0  0  0
  3  2  2  0  0  0  0
  3  4  1  0  0  0  0
  4  5  2  0  0  0  0
  5  6  1  0  0  0  0
  5  8  1  0  0  0  0
  6 10  1  0  0  0  0
  7  6  2  0  0  0  0
  8  9  1  0  0  0  0
 10 11  1  0  0  0  0
 12 14  1  0  0  0  0
 12 16  1  0  0  0  0
 13 12  2  0  0  0  0
 14 15  1  0  0  0  0
 16 17  1  0  0  0  0
 17 18  1  0  0  0  0
 19 18  1  0  0  0  0
 20 21  1  0  0  0  0
 21 19  1  0  0  0  0
M  END
>  <MODEL>
7

>  <REMARK>
 VINA RESULT:    -5.126      3.712      6.217
 INTER + INTRA:          -8.257
 INTER:                  -7.744
 INTRA:                  -0.513
 UNBOUND:                -0.583
  Name = CHEMBL76196
  11 active torsions:
  status: ('A' for Active; 'I' for Inactive)
    1  A    between atoms: C_1  and  O_2
    2  A    between atoms: O_2  and  C_3
    3  A    between atoms: C_3  and  C_4
    4  A    between atoms: C_4  and  O_5
    5  A    between atoms: O_5  and  C_6
    6  A    between atoms: C_6  and  C_7
    7  A    between atoms: N_9  and  C_10
    8  A    between atoms: C_10  and  C_11
    9  A    between atoms: C_14  and  O_15
   10  A    between atoms: C_16  and  O_17
   11  A    between atoms: O_17  and  C_18
                            x       y       z     vdW  Elec       q    Type
                         _______ _______ _______ _____ _____    ______ ____

>  <TORSDO>
F 9

>  <SCORE>
-5.126

>  <RMSD_LB>
3.712

>  <RMSD_UB>
6.217

$$$$
CHEMBL76196
 OpenBabel10172500373D

 21 21  0  0  0  0  0  0  0  0999 V2000
  142.8070  138.2520  153.5700 C   0  0  0  0  0  2  0  0  0  0  0  0
  142.2450  137.7240  152.2740 C   0  0  0  0  0  0  0  0  0  0  0  0
  143.0830  137.1590  151.3050 C   0  0  0  0  0  3  0  0  0  0  0  0
  142.5530  136.6550  150.1140 C   0  0  0  0  0  3  0  0  0  0  0  0
  141.1760  136.7000  149.8790 C   0  0  0  0  0  0  0  0  0  0  0  0
  140.3130  137.2430  150.8360 C   0  0  0  0  0  0  0  0  0  0  0  0
  140.8630  137.7560  152.0240 C   0  0  0  0  0  3  0  0  0  0  0  0
  140.7100  136.1950  148.6950 O   0  0  0  0  0  0  0  0  0  0  0  0
  141.0570  135.3920  148.3590 H   0  0  0  0  0  0  0  0  0  0  0  0
  138.9480  137.3460  150.7820 O   0  0  0  0  0  0  0  0  0  0  0  0
  138.3910  138.5460  150.2570 C   0  0  0  0  0  1  0  0  0  0  0  0
  141.2820  138.4490  155.4810 C   0  0  0  0  0  0  0  0  0  0  0  0
  140.9770  139.6100  155.1770 O   0  0  0  0  0  0  0  0  0  0  0  0
  142.1590  137.6920  154.7360 N   0  0  0  0  0  0  0  0  0  0  0  0
  142.3460  136.7620  154.9980 H   0  0  0  0  0  0  0  0  0  0  0  0
  140.6620  137.7280  156.6810 C   0  0  0  0  0  2  0  0  0  0  0  0
  139.2660  137.9980  156.7730 O   0  0  0  0  0  0  0  0  0  0  0  0
  138.5000  137.2430  155.8300 C   0  0  0  0  0  2  0  0  0  0  0  0
  137.5480  138.1930  155.1070 C   0  0  0  0  0  2  0  0  0  0  0  0
  135.9740  136.4730  155.4280 C   0  0  0  0  0  1  0  0  0  0  0  0
  136.1960  137.8790  155.4400 O   0  0  0  0  0  0  0  0  0  0  0  0
  1 14  1  0  0  0  0
  2  1  1  0  0  0  0
  3  2  2  0  0  0  0
  4  3  1  0  0  0  0
  5  4  2  0  0  0  0
  5  6  1  0  0  0  0
  6  7  2  0  0  0  0
  7  2  1  0  0  0  0
  8  5  1  0  0  0  0
  9  8  1  0  0  0  0
 10  6  1  0  0  0  0
 11 10  1  0  0  0  0
 12 16  1  0  0  0  0
 13 12  2  0  0  0  0
 14 15  1  0  0  0  0
 14 12  1  0  0  0  0
 16 17  1  0  0  0  0
 18 17  1  0  0  0  0
 19 21  1  0  0  0  0
 19 18  1  0  0  0  0
 20 21  1  0  0  0  0
M  END
>  <MODEL>
8

>  <REMARK>
 VINA RESULT:    -5.098      5.806      7.377
 INTER + INTRA:          -8.215
 INTER:                  -7.631
 INTRA:                  -0.583
 UNBOUND:                -0.583
  Name = CHEMBL76196
  11 active torsions:
  status: ('A' for Active; 'I' for Inactive)
    1  A    between atoms: C_1  and  O_2
    2  A    between atoms: O_2  and  C_3
    3  A    between atoms: C_3  and  C_4
    4  A    between atoms: C_4  and  O_5
    5  A    between atoms: O_5  and  C_6
    6  A    between atoms: C_6  and  C_7
    7  A    between atoms: N_9  and  C_10
    8  A    between atoms: C_10  and  C_11
    9  A    between atoms: C_14  and  O_15
   10  A    between atoms: C_16  and  O_17
   11  A    between atoms: O_17  and  C_18
                            x       y       z     vdW  Elec       q    Type
                         _______ _______ _______ _____ _____    ______ ____

>  <TORSDO>
F 9

>  <SCORE>
-5.098

>  <RMSD_LB>
5.806

>  <RMSD_UB>
7.377

$$$$
CHEMBL76196
 OpenBabel10172500373D

 21 21  0  0  0  0  0  0  0  0999 V2000
  146.4380  142.3380  149.9460 C   0  0  0  0  0  2  0  0  0  0  0  0
  147.0730  142.0600  151.2850 C   0  0  0  0  0  0  0  0  0  0  0  0
  148.4500  142.2290  151.4760 C   0  0  0  0  0  3  0  0  0  0  0  0
  149.0290  141.9850  152.7240 C   0  0  0  0  0  3  0  0  0  0  0  0
  148.2390  141.5790  153.8030 C   0  0  0  0  0  0  0  0  0  0  0  0
  146.8590  141.4190  153.6470 C   0  0  0  0  0  0  0  0  0  0  0  0
  146.2930  141.6570  152.3820 C   0  0  0  0  0  3  0  0  0  0  0  0
  148.8570  141.3530  155.0030 O   0  0  0  0  0  0  0  0  0  0  0  0
  149.1460  142.0750  155.5250 H   0  0  0  0  0  0  0  0  0  0  0  0
  145.9370  141.0530  154.5920 O   0  0  0  0  0  0  0  0  0  0  0  0
  145.2150  139.8450  154.3850 C   0  0  0  0  0  1  0  0  0  0  0  0
  145.3650  140.3500  148.9920 C   0  0  0  0  0  0  0  0  0  0  0  0
  146.4450  139.9110  148.5750 O   0  0  0  0  0  0  0  0  0  0  0  0
  145.2650  141.5280  149.6990 N   0  0  0  0  0  0  0  0  0  0  0  0
  144.3890  141.8200  150.0390 H   0  0  0  0  0  0  0  0  0  0  0  0
  144.0480  139.5890  148.8120 C   0  0  0  0  0  2  0  0  0  0  0  0
  142.9650  140.2960  149.4100 O   0  0  0  0  0  0  0  0  0  0  0  0
  142.5780  139.7400  150.6690 C   0  0  0  0  0  2  0  0  0  0  0  0
  142.6950  138.2190  150.5850 C   0  0  0  0  0  2  0  0  0  0  0  0
  141.0080  136.9930  149.4950 C   0  0  0  0  0  1  0  0  0  0  0  0
  141.4040  137.6220  150.7080 O   0  0  0  0  0  0  0  0  0  0  0  0
  1  2  1  0  0  0  0
  2  3  2  0  0  0  0
  2  7  1  0  0  0  0
  3  4  1  0  0  0  0
  4  5  2  0  0  0  0
  5  8  1  0  0  0  0
  6  5  1  0  0  0  0
  6 10  1  0  0  0  0
  7  6  2  0  0  0  0
  8  9  1  0  0  0  0
 11 10  1  0  0  0  0
 12 14  1  0  0  0  0
 13 12  2  0  0  0  0
 14  1  1  0  0  0  0
 14 15  1  0  0  0  0
 16 12  1  0  0  0  0
 16 17  1  0  0  0  0
 17 18  1  0  0  0  0
 19 18  1  0  0  0  0
 19 21  1  0  0  0  0
 20 21  1  0  0  0  0
M  END
>  <MODEL>
9

>  <REMARK>
 VINA RESULT:    -5.026      2.519      4.879
 INTER + INTRA:          -8.108
 INTER:                  -7.593
 INTRA:                  -0.515
 UNBOUND:                -0.583
  Name = CHEMBL76196
  11 active torsions:
  status: ('A' for Active; 'I' for Inactive)
    1  A    between atoms: C_1  and  O_2
    2  A    between atoms: O_2  and  C_3
    3  A    between atoms: C_3  and  C_4
    4  A    between atoms: C_4  and  O_5
    5  A    between atoms: O_5  and  C_6
    6  A    between atoms: C_6  and  C_7
    7  A    between atoms: N_9  and  C_10
    8  A    between atoms: C_10  and  C_11
    9  A    between atoms: C_14  and  O_15
   10  A    between atoms: C_16  and  O_17
   11  A    between atoms: O_17  and  C_18
                            x       y       z     vdW  Elec       q    Type
                         _______ _______ _______ _____ _____    ______ ____

>  <TORSDO>
F 9

>  <SCORE>
-5.026

>  <RMSD_LB>
2.519

>  <RMSD_UB>
4.879

$$$$
