CHEMBL5289408
 OpenBabel10162523563D

 33 33  0  0  0  0  0  0  0  0999 V2000
  135.0500  135.0790  155.7530 C   0  0  0  0  0  0  0  0  0  0  0  0
  136.0150  135.8920  156.3660 C   0  0  0  0  0  3  0  0  0  0  0  0
  136.9270  136.6420  155.6130 C   0  0  0  0  0  0  0  0  0  0  0  0
  136.8450  136.5990  154.2240 C   0  0  0  0  0  3  0  0  0  0  0  0
  135.8560  135.8370  153.5970 C   0  0  0  0  0  3  0  0  0  0  0  0
  134.9280  135.1020  154.3530 C   0  0  0  0  0  0  0  0  0  0  0  0
  133.9550  134.7330  157.8260 C   0  0  0  0  0  1  0  0  0  0  0  0
  134.2050  134.2860  156.4930 O   0  0  0  0  0  0  0  0  0  0  0  0
  137.9790  137.4600  156.3170 C   0  0  0  0  0  2  0  0  0  0  0  0
  139.2630  137.3880  155.6610 N   0  0  0  0  0  0  0  0  0  0  0  0
  139.7780  138.4290  154.9250 C   0  0  0  0  0  0  0  0  0  0  0  0
  139.1770  139.4750  154.7000 O   0  0  0  0  0  0  0  0  0  0  0  0
  139.7910  136.5610  155.7440 H   0  0  0  0  0  0  0  0  0  0  0  0
  141.1700  138.1620  154.3930 C   0  0  0  0  0  2  0  0  0  0  0  0
  141.2010  138.3070  152.8800 C   0  0  0  0  0  2  0  0  0  0  0  0
  139.9820  137.6640  152.2210 C   0  0  0  0  0  2  0  0  0  0  0  0
  140.2170  137.5050  150.7190 C   0  0  0  0  0  2  0  0  0  0  0  0
  139.0370  136.8800  150.0360 C   0  0  0  0  0  3  0  0  0  0  0  0
  137.8480  136.7040  150.6330 C   0  0  0  0  0  3  0  0  0  0  0  0
  136.6550  136.0760  149.9580 C   0  0  0  0  0  3  0  0  0  0  0  0
  136.0770  137.0280  148.9120 C   0  0  0  0  0  1  0  0  0  0  0  0
  137.0480  134.7470  149.3130 C   0  0  0  0  0  1  0  0  0  0  0  0
  133.9950  134.4480  153.5850 O   0  0  0  0  0  0  0  0  0  0  0  0
  134.4760  133.9060  152.3560 C   0  0  0  0  0  2  0  0  0  0  0  0
  133.5650  134.3330  151.2030 C   0  0  0  0  0  2  0  0  0  0  0  0
  133.7060  133.3420  150.0470 C   0  0  0  0  0  2  0  0  0  0  0  0
  132.6230  133.5330  148.9860 C   0  0  0  0  0  2  0  0  0  0  0  0
  132.9760  134.6960  148.0540 C   0  0  0  0  0  2  0  0  0  0  0  0
  134.0460  134.2800  147.0490 C   0  0  0  0  0  2  0  0  0  0  0  0
  133.8500  134.9720  145.7810 N   0  0  0  0  0  4  0  0  0  0  0  0
  132.8540  135.0200  145.5700 H   0  0  0  0  0  0  0  0  0  0  0  0
  134.3290  134.4630  145.0380 H   0  0  0  0  0  0  0  0  0  0  0  0
  134.2310  135.9160  145.8460 H   0  0  0  0  0  0  0  0  0  0  0  0
  1  2  1  0  0  0  0
  1  8  1  0  0  0  0
  3  9  1  0  0  0  0
  3  2  2  0  0  0  0
  4  3  1  0  0  0  0
  5  4  2  0  0  0  0
  5  6  1  0  0  0  0
  6  1  2  0  0  0  0
  8  7  1  0  0  0  0
 10 13  1  0  0  0  0
 10  9  1  0  0  0  0
 11 10  1  0  0  0  0
 12 11  2  0  0  0  0
 14 11  1  0  0  0  0
 15 14  1  0  0  0  0
 16 15  1  0  0  0  0
 17 16  1  0  0  0  0
 18 19  2  0  0  0  0
 18 17  1  0  0  0  0
 20 19  1  0  0  0  0
 21 20  1  0  0  0  0
 22 20  1  0  0  0  0
 23  6  1  0  0  0  0
 24 23  1  0  0  0  0
 25 24  1  0  0  0  0
 26 25  1  0  0  0  0
 27 26  1  0  0  0  0
 28 27  1  0  0  0  0
 29 28  1  0  0  0  0
 30 33  1  0  0  0  0
 30 29  1  0  0  0  0
 31 30  1  0  0  0  0
 32 30  1  0  0  0  0
M  END
>  <MODEL>
1

>  <REMARK>
 VINA RESULT:    -6.745      0.000      0.000
 INTER + INTRA:         -14.913
 INTER:                 -12.649
 INTRA:                  -2.264
 UNBOUND:                -1.663
  Name = CHEMBL5289408
  20 active torsions:
  status: ('A' for Active; 'I' for Inactive)
    1  A    between atoms: C_1  and  O_2
    2  A    between atoms: O_2  and  C_3
    3  A    between atoms: C_5  and  C_6
    4  A    between atoms: C_6  and  N_7
    5  A    between atoms: C_8  and  C_10
    6  A    between atoms: C_10  and  C_11
    7  A    between atoms: C_11  and  C_12
    8  A    between atoms: C_12  and  C_13
    9  A    between atoms: C_13  and  C_14
   10  A    between atoms: C_15  and  C_16
   11  A    between atoms: C_16  and  C_17
   12  A    between atoms: C_16  and  C_18
   13  A    between atoms: C_21  and  O_22
   14  A    between atoms: O_22  and  C_23
   15  A    between atoms: C_23  and  C_24
   16  A    between atoms: C_24  and  C_25
   17  A    between atoms: C_25  and  C_26
   18  A    between atoms: C_26  and  C_27
   19  A    between atoms: C_27  and  C_28
   20  A    between atoms: C_28  and  N_29
                            x       y       z     vdW  Elec       q    Type
                         _______ _______ _______ _____ _____    ______ ____

>  <TORSDO>
F 17

>  <SCORE>
-6.745

>  <RMSD_LB>
0.000

>  <RMSD_UB>
0.000

$$$$
CHEMBL5289408
 OpenBabel10162523563D

 33 33  0  0  0  0  0  0  0  0999 V2000
  140.2610  137.3910  150.6330 C   0  0  0  0  0  0  0  0  0  0  0  0
  140.6420  137.9190  151.8760 C   0  0  0  0  0  3  0  0  0  0  0  0
  139.7130  138.1180  152.9040 C   0  0  0  0  0  0  0  0  0  0  0  0
  138.3870  137.7520  152.6900 C   0  0  0  0  0  3  0  0  0  0  0  0
  138.0000  137.1760  151.4770 C   0  0  0  0  0  3  0  0  0  0  0  0
  138.9370  136.9550  150.4550 C   0  0  0  0  0  0  0  0  0  0  0  0
  141.2620  138.3960  148.7350 C   0  0  0  0  0  1  0  0  0  0  0  0
  141.1600  137.2650  149.6010 O   0  0  0  0  0  0  0  0  0  0  0  0
  140.1610  138.7360  154.2030 C   0  0  0  0  0  2  0  0  0  0  0  0
  139.2480  138.4630  155.2880 N   0  0  0  0  0  0  0  0  0  0  0  0
  139.6010  137.7100  156.3820 C   0  0  0  0  0  0  0  0  0  0  0  0
  140.6850  137.1480  156.5080 O   0  0  0  0  0  0  0  0  0  0  0  0
  138.3360  138.8310  155.2410 H   0  0  0  0  0  0  0  0  0  0  0  0
  138.5130  137.6180  157.4300 C   0  0  0  0  0  2  0  0  0  0  0  0
  137.1690  137.3240  156.7810 C   0  0  0  0  0  2  0  0  0  0  0  0
  137.0790  135.8820  156.2850 C   0  0  0  0  0  2  0  0  0  0  0  0
  135.6500  135.5650  155.8420 C   0  0  0  0  0  2  0  0  0  0  0  0
  135.6010  135.1100  154.4140 C   0  0  0  0  0  3  0  0  0  0  0  0
  134.8490  135.7060  153.4750 C   0  0  0  0  0  3  0  0  0  0  0  0
  134.7910  135.2570  152.0380 C   0  0  0  0  0  3  0  0  0  0  0  0
  135.7850  134.1210  151.7970 C   0  0  0  0  0  1  0  0  0  0  0  0
  133.3740  134.8140  151.6750 C   0  0  0  0  0  1  0  0  0  0  0  0
  138.4030  136.3370  149.3490 O   0  0  0  0  0  0  0  0  0  0  0  0
  136.9870  136.4390  149.2080 C   0  0  0  0  0  2  0  0  0  0  0  0
  136.4480  135.2240  148.4500 C   0  0  0  0  0  2  0  0  0  0  0  0
  134.9300  135.3460  148.3030 C   0  0  0  0  0  2  0  0  0  0  0  0
  134.4340  136.7640  148.5790 C   0  0  0  0  0  2  0  0  0  0  0  0
  132.9040  136.8200  148.5450 C   0  0  0  0  0  2  0  0  0  0  0  0
  132.4030  137.1000  147.1300 C   0  0  0  0  0  2  0  0  0  0  0  0
  133.2870  138.0400  146.4530 N   0  0  0  0  0  4  0  0  0  0  0  0
  132.7380  138.6460  145.8450 H   0  0  0  0  0  0  0  0  0  0  0  0
  133.9680  137.5240  145.8940 H   0  0  0  0  0  0  0  0  0  0  0  0
  133.7770  138.6060  147.1470 H   0  0  0  0  0  0  0  0  0  0  0  0
  1  2  1  0  0  0  0
  2  3  2  0  0  0  0
  3  9  1  0  0  0  0
  4  3  1  0  0  0  0
  5  4  2  0  0  0  0
  6  1  2  0  0  0  0
  6  5  1  0  0  0  0
  7  8  1  0  0  0  0
  8  1  1  0  0  0  0
  9 10  1  0  0  0  0
 10 11  1  0  0  0  0
 11 12  2  0  0  0  0
 11 14  1  0  0  0  0
 13 10  1  0  0  0  0
 15 14  1  0  0  0  0
 16 15  1  0  0  0  0
 17 16  1  0  0  0  0
 18 17  1  0  0  0  0
 19 18  2  0  0  0  0
 20 19  1  0  0  0  0
 21 20  1  0  0  0  0
 22 20  1  0  0  0  0
 23  6  1  0  0  0  0
 24 23  1  0  0  0  0
 25 24  1  0  0  0  0
 26 25  1  0  0  0  0
 26 27  1  0  0  0  0
 28 27  1  0  0  0  0
 29 28  1  0  0  0  0
 30 29  1  0  0  0  0
 30 33  1  0  0  0  0
 31 30  1  0  0  0  0
 32 30  1  0  0  0  0
M  END
>  <MODEL>
2

>  <REMARK>
 VINA RESULT:    -6.524      2.368      5.273
 INTER + INTRA:         -14.481
 INTER:                 -11.786
 INTRA:                  -2.694
 UNBOUND:                -1.663
  Name = CHEMBL5289408
  20 active torsions:
  status: ('A' for Active; 'I' for Inactive)
    1  A    between atoms: C_1  and  O_2
    2  A    between atoms: O_2  and  C_3
    3  A    between atoms: C_5  and  C_6
    4  A    between atoms: C_6  and  N_7
    5  A    between atoms: C_8  and  C_10
    6  A    between atoms: C_10  and  C_11
    7  A    between atoms: C_11  and  C_12
    8  A    between atoms: C_12  and  C_13
    9  A    between atoms: C_13  and  C_14
   10  A    between atoms: C_15  and  C_16
   11  A    between atoms: C_16  and  C_17
   12  A    between atoms: C_16  and  C_18
   13  A    between atoms: C_21  and  O_22
   14  A    between atoms: O_22  and  C_23
   15  A    between atoms: C_23  and  C_24
   16  A    between atoms: C_24  and  C_25
   17  A    between atoms: C_25  and  C_26
   18  A    between atoms: C_26  and  C_27
   19  A    between atoms: C_27  and  C_28
   20  A    between atoms: C_28  and  N_29
                            x       y       z     vdW  Elec       q    Type
                         _______ _______ _______ _____ _____    ______ ____

>  <TORSDO>
F 17

>  <SCORE>
-6.524

>  <RMSD_LB>
2.368

>  <RMSD_UB>
5.273

$$$$
CHEMBL5289408
 OpenBabel10162523563D

 33 33  0  0  0  0  0  0  0  0999 V2000
  135.6120  135.4460  156.0300 C   0  0  0  0  0  0  0  0  0  0  0  0
  136.6710  136.1710  156.5960 C   0  0  0  0  0  3  0  0  0  0  0  0
  137.5510  136.9210  155.8060 C   0  0  0  0  0  0  0  0  0  0  0  0
  137.3440  136.9680  154.4300 C   0  0  0  0  0  3  0  0  0  0  0  0
  136.2630  136.2940  153.8560 C   0  0  0  0  0  3  0  0  0  0  0  0
  135.3670  135.5610  154.6510 C   0  0  0  0  0  0  0  0  0  0  0  0
  134.7510  134.9790  158.1880 C   0  0  0  0  0  1  0  0  0  0  0  0
  134.7950  134.6510  156.7980 O   0  0  0  0  0  0  0  0  0  0  0  0
  138.7040  137.6420  156.4550 C   0  0  0  0  0  2  0  0  0  0  0  0
  139.9440  137.4580  155.7370 N   0  0  0  0  0  0  0  0  0  0  0  0
  140.5200  138.4540  154.9860 C   0  0  0  0  0  0  0  0  0  0  0  0
  140.0110  139.5550  154.7990 O   0  0  0  0  0  0  0  0  0  0  0  0
  140.3930  136.5830  155.7870 H   0  0  0  0  0  0  0  0  0  0  0  0
  141.8540  138.0640  154.3850 C   0  0  0  0  0  2  0  0  0  0  0  0
  141.9490  138.5380  152.9430 C   0  0  0  0  0  2  0  0  0  0  0  0
  143.1920  139.3950  152.7070 C   0  0  0  0  0  2  0  0  0  0  0  0
  143.3470  139.6990  151.2160 C   0  0  0  0  0  2  0  0  0  0  0  0
  144.4300  140.7060  150.9660 C   0  0  0  0  0  3  0  0  0  0  0  0
  145.0750  141.3540  151.9480 C   0  0  0  0  0  3  0  0  0  0  0  0
  146.1640  142.3690  151.7080 C   0  0  0  0  0  3  0  0  0  0  0  0
  147.4610  141.9230  152.3820 C   0  0  0  0  0  1  0  0  0  0  0  0
  146.3820  142.5710  150.2090 C   0  0  0  0  0  1  0  0  0  0  0  0
  134.3350  135.0010  153.9360 O   0  0  0  0  0  0  0  0  0  0  0  0
  134.7190  134.1210  152.8820 C   0  0  0  0  0  2  0  0  0  0  0  0
  133.7470  134.2540  151.7080 C   0  0  0  0  0  2  0  0  0  0  0  0
  133.7560  135.6960  151.1980 C   0  0  0  0  0  2  0  0  0  0  0  0
  132.4750  136.0510  150.4450 C   0  0  0  0  0  2  0  0  0  0  0  0
  132.7830  136.9470  149.2420 C   0  0  0  0  0  2  0  0  0  0  0  0
  133.5210  136.1660  148.1590 C   0  0  0  0  0  2  0  0  0  0  0  0
  132.6340  135.1880  147.5410 N   0  0  0  0  0  4  0  0  0  0  0  0
  131.9120  135.6730  147.0090 H   0  0  0  0  0  0  0  0  0  0  0  0
  132.1970  134.6180  148.2660 H   0  0  0  0  0  0  0  0  0  0  0  0
  133.1730  134.5880  146.9160 H   0  0  0  0  0  0  0  0  0  0  0  0
  1  2  1  0  0  0  0
  1  8  1  0  0  0  0
  3  9  1  0  0  0  0
  3  2  2  0  0  0  0
  4  3  1  0  0  0  0
  5  4  2  0  0  0  0
  5  6  1  0  0  0  0
  6  1  2  0  0  0  0
  8  7  1  0  0  0  0
 10 13  1  0  0  0  0
 10  9  1  0  0  0  0
 11 10  1  0  0  0  0
 12 11  2  0  0  0  0
 14 11  1  0  0  0  0
 15 14  1  0  0  0  0
 16 15  1  0  0  0  0
 17 16  1  0  0  0  0
 18 17  1  0  0  0  0
 18 19  2  0  0  0  0
 20 19  1  0  0  0  0
 20 21  1  0  0  0  0
 22 20  1  0  0  0  0
 23  6  1  0  0  0  0
 24 23  1  0  0  0  0
 25 24  1  0  0  0  0
 26 25  1  0  0  0  0
 27 26  1  0  0  0  0
 28 27  1  0  0  0  0
 29 28  1  0  0  0  0
 30 29  1  0  0  0  0
 30 32  1  0  0  0  0
 31 30  1  0  0  0  0
 33 30  1  0  0  0  0
M  END
>  <MODEL>
3

>  <REMARK>
 VINA RESULT:    -6.414      2.851      4.687
 INTER + INTRA:         -14.265
 INTER:                 -13.158
 INTRA:                  -1.107
 UNBOUND:                -1.663
  Name = CHEMBL5289408
  20 active torsions:
  status: ('A' for Active; 'I' for Inactive)
    1  A    between atoms: C_1  and  O_2
    2  A    between atoms: O_2  and  C_3
    3  A    between atoms: C_5  and  C_6
    4  A    between atoms: C_6  and  N_7
    5  A    between atoms: C_8  and  C_10
    6  A    between atoms: C_10  and  C_11
    7  A    between atoms: C_11  and  C_12
    8  A    between atoms: C_12  and  C_13
    9  A    between atoms: C_13  and  C_14
   10  A    between atoms: C_15  and  C_16
   11  A    between atoms: C_16  and  C_17
   12  A    between atoms: C_16  and  C_18
   13  A    between atoms: C_21  and  O_22
   14  A    between atoms: O_22  and  C_23
   15  A    between atoms: C_23  and  C_24
   16  A    between atoms: C_24  and  C_25
   17  A    between atoms: C_25  and  C_26
   18  A    between atoms: C_26  and  C_27
   19  A    between atoms: C_27  and  C_28
   20  A    between atoms: C_28  and  N_29
                            x       y       z     vdW  Elec       q    Type
                         _______ _______ _______ _____ _____    ______ ____

>  <TORSDO>
F 17

>  <SCORE>
-6.414

>  <RMSD_LB>
2.851

>  <RMSD_UB>
4.687

$$$$
CHEMBL5289408
 OpenBabel10162523563D

 33 33  0  0  0  0  0  0  0  0999 V2000
  142.9340  139.3850  150.5170 C   0  0  0  0  0  0  0  0  0  0  0  0
  141.6270  139.6840  150.9310 C   0  0  0  0  0  3  0  0  0  0  0  0
  140.8650  138.7710  151.6690 C   0  0  0  0  0  0  0  0  0  0  0  0
  141.4360  137.5520  152.0240 C   0  0  0  0  0  3  0  0  0  0  0  0
  142.7550  137.2590  151.6660 C   0  0  0  0  0  3  0  0  0  0  0  0
  143.5270  138.1840  150.9450 C   0  0  0  0  0  0  0  0  0  0  0  0
  144.6640  141.0010  150.4070 C   0  0  0  0  0  1  0  0  0  0  0  0
  143.6540  140.2520  149.7300 O   0  0  0  0  0  0  0  0  0  0  0  0
  139.4470  139.1170  152.0460 C   0  0  0  0  0  2  0  0  0  0  0  0
  138.4950  138.1470  151.5590 N   0  0  0  0  0  0  0  0  0  0  0  0
  137.7160  137.3880  152.3990 C   0  0  0  0  0  0  0  0  0  0  0  0
  137.8020  137.4100  153.6230 O   0  0  0  0  0  0  0  0  0  0  0  0
  138.4000  138.0250  150.5870 H   0  0  0  0  0  0  0  0  0  0  0  0
  136.7350  136.4930  151.6710 C   0  0  0  0  0  2  0  0  0  0  0  0
  136.0910  135.5100  152.6360 C   0  0  0  0  0  2  0  0  0  0  0  0
  134.5650  135.5710  152.5760 C   0  0  0  0  0  2  0  0  0  0  0  0
  133.9810  134.1580  152.5870 C   0  0  0  0  0  2  0  0  0  0  0  0
  133.9060  133.5780  151.2050 C   0  0  0  0  0  3  0  0  0  0  0  0
  133.0160  133.9790  150.2850 C   0  0  0  0  0  3  0  0  0  0  0  0
  132.9310  133.4030  148.8940 C   0  0  0  0  0  3  0  0  0  0  0  0
  132.9270  134.5240  147.8560 C   0  0  0  0  0  1  0  0  0  0  0  0
  134.0950  132.4460  148.6430 C   0  0  0  0  0  1  0  0  0  0  0  0
  144.8150  137.7610  150.7170 O   0  0  0  0  0  0  0  0  0  0  0  0
  145.1270  136.4520  151.1880 C   0  0  0  0  0  2  0  0  0  0  0  0
  146.3310  136.5080  152.1310 C   0  0  0  0  0  2  0  0  0  0  0  0
  145.8480  136.4560  153.5810 C   0  0  0  0  0  2  0  0  0  0  0  0
  145.6240  137.8490  154.1670 C   0  0  0  0  0  2  0  0  0  0  0  0
  146.6410  138.8450  153.6000 C   0  0  0  0  0  2  0  0  0  0  0  0
  147.3340  139.6110  154.7230 C   0  0  0  0  0  2  0  0  0  0  0  0
  147.2000  138.8970  155.9870 N   0  0  0  0  0  4  0  0  0  0  0  0
  147.5810  137.9570  155.8880 H   0  0  0  0  0  0  0  0  0  0  0  0
  146.2130  138.8380  156.2410 H   0  0  0  0  0  0  0  0  0  0  0  0
  147.7090  139.3970  156.7160 H   0  0  0  0  0  0  0  0  0  0  0  0
  1  2  2  0  0  0  0
  1  6  1  0  0  0  0
  2  3  1  0  0  0  0
  3  4  2  0  0  0  0
  3  9  1  0  0  0  0
  5  4  1  0  0  0  0
  6  5  2  0  0  0  0
  8  7  1  0  0  0  0
  8  1  1  0  0  0  0
 10  9  1  0  0  0  0
 10 11  1  0  0  0  0
 11 12  2  0  0  0  0
 13 10  1  0  0  0  0
 14 11  1  0  0  0  0
 14 15  1  0  0  0  0
 16 17  1  0  0  0  0
 16 15  1  0  0  0  0
 18 17  1  0  0  0  0
 19 18  2  0  0  0  0
 20 19  1  0  0  0  0
 21 20  1  0  0  0  0
 22 20  1  0  0  0  0
 23  6  1  0  0  0  0
 23 24  1  0  0  0  0
 24 25  1  0  0  0  0
 25 26  1  0  0  0  0
 26 27  1  0  0  0  0
 28 27  1  0  0  0  0
 28 29  1  0  0  0  0
 29 30  1  0  0  0  0
 30 32  1  0  0  0  0
 30 33  1  0  0  0  0
 31 30  1  0  0  0  0
M  END
>  <MODEL>
4

>  <REMARK>
 VINA RESULT:    -6.175      3.851      9.677
 INTER + INTRA:         -13.794
 INTER:                 -12.406
 INTRA:                  -1.387
 UNBOUND:                -1.663
  Name = CHEMBL5289408
  20 active torsions:
  status: ('A' for Active; 'I' for Inactive)
    1  A    between atoms: C_1  and  O_2
    2  A    between atoms: O_2  and  C_3
    3  A    between atoms: C_5  and  C_6
    4  A    between atoms: C_6  and  N_7
    5  A    between atoms: C_8  and  C_10
    6  A    between atoms: C_10  and  C_11
    7  A    between atoms: C_11  and  C_12
    8  A    between atoms: C_12  and  C_13
    9  A    between atoms: C_13  and  C_14
   10  A    between atoms: C_15  and  C_16
   11  A    between atoms: C_16  and  C_17
   12  A    between atoms: C_16  and  C_18
   13  A    between atoms: C_21  and  O_22
   14  A    between atoms: O_22  and  C_23
   15  A    between atoms: C_23  and  C_24
   16  A    between atoms: C_24  and  C_25
   17  A    between atoms: C_25  and  C_26
   18  A    between atoms: C_26  and  C_27
   19  A    between atoms: C_27  and  C_28
   20  A    between atoms: C_28  and  N_29
                            x       y       z     vdW  Elec       q    Type
                         _______ _______ _______ _____ _____    ______ ____

>  <TORSDO>
F 17

>  <SCORE>
-6.175

>  <RMSD_LB>
3.851

>  <RMSD_UB>
9.677

$$$$
CHEMBL5289408
 OpenBabel10162523563D

 33 33  0  0  0  0  0  0  0  0999 V2000
  134.9420  135.0730  156.0390 C   0  0  0  0  0  0  0  0  0  0  0  0
  135.9120  135.8700  156.6660 C   0  0  0  0  0  3  0  0  0  0  0  0
  136.9050  136.5290  155.9320 C   0  0  0  0  0  0  0  0  0  0  0  0
  136.9050  136.4100  154.5450 C   0  0  0  0  0  3  0  0  0  0  0  0
  135.9150  135.6640  153.9000 C   0  0  0  0  0  3  0  0  0  0  0  0
  134.9050  135.0210  154.6350 C   0  0  0  0  0  0  0  0  0  0  0  0
  133.9600  134.6780  158.1600 C   0  0  0  0  0  1  0  0  0  0  0  0
  134.0130  134.3670  156.7670 O   0  0  0  0  0  0  0  0  0  0  0  0
  137.9560  137.3320  156.6550 C   0  0  0  0  0  2  0  0  0  0  0  0
  139.2510  137.2420  156.0220 N   0  0  0  0  0  0  0  0  0  0  0  0
  139.7490  138.2340  155.2110 C   0  0  0  0  0  0  0  0  0  0  0  0
  139.1250  139.2430  154.8960 O   0  0  0  0  0  0  0  0  0  0  0  0
  139.7980  136.4380  156.1770 H   0  0  0  0  0  0  0  0  0  0  0  0
  141.1550  137.9630  154.7180 C   0  0  0  0  0  2  0  0  0  0  0  0
  141.2310  138.1180  153.2080 C   0  0  0  0  0  2  0  0  0  0  0  0
  142.5370  137.5600  152.6430 C   0  0  0  0  0  2  0  0  0  0  0  0
  143.5440  137.3340  153.7710 C   0  0  0  0  0  2  0  0  0  0  0  0
  144.9550  137.5270  153.3010 C   0  0  0  0  0  3  0  0  0  0  0  0
  145.5650  136.6980  152.4400 C   0  0  0  0  0  3  0  0  0  0  0  0
  146.9830  136.8810  151.9610 C   0  0  0  0  0  3  0  0  0  0  0  0
  147.0300  136.8780  150.4340 C   0  0  0  0  0  1  0  0  0  0  0  0
  147.5660  138.1820  152.5120 C   0  0  0  0  0  1  0  0  0  0  0  0
  133.9850  134.3720  153.8470 O   0  0  0  0  0  0  0  0  0  0  0  0
  134.3900  134.1230  152.5020 C   0  0  0  0  0  2  0  0  0  0  0  0
  133.2610  134.4950  151.5380 C   0  0  0  0  0  2  0  0  0  0  0  0
  133.8390  135.2500  150.3410 C   0  0  0  0  0  2  0  0  0  0  0  0
  132.7880  135.5240  149.2670 C   0  0  0  0  0  2  0  0  0  0  0  0
  132.7670  137.0090  148.8940 C   0  0  0  0  0  2  0  0  0  0  0  0
  132.7140  137.1870  147.3790 C   0  0  0  0  0  2  0  0  0  0  0  0
  132.7200  135.8910  146.7120 N   0  0  0  0  0  4  0  0  0  0  0  0
  133.5900  135.4040  146.9240 H   0  0  0  0  0  0  0  0  0  0  0  0
  132.6430  136.0260  145.7040 H   0  0  0  0  0  0  0  0  0  0  0  0
  131.9290  135.3370  147.0420 H   0  0  0  0  0  0  0  0  0  0  0  0
  1  2  1  0  0  0  0
  1  8  1  0  0  0  0
  3  9  1  0  0  0  0
  3  2  2  0  0  0  0
  4  3  1  0  0  0  0
  5  4  2  0  0  0  0
  5  6  1  0  0  0  0
  6  1  2  0  0  0  0
  8  7  1  0  0  0  0
 10 13  1  0  0  0  0
 10  9  1  0  0  0  0
 11 10  1  0  0  0  0
 12 11  2  0  0  0  0
 14 11  1  0  0  0  0
 15 14  1  0  0  0  0
 16 15  1  0  0  0  0
 16 17  1  0  0  0  0
 18 17  1  0  0  0  0
 19 18  2  0  0  0  0
 20 19  1  0  0  0  0
 20 22  1  0  0  0  0
 21 20  1  0  0  0  0
 23  6  1  0  0  0  0
 24 23  1  0  0  0  0
 25 24  1  0  0  0  0
 26 25  1  0  0  0  0
 27 26  1  0  0  0  0
 28 27  1  0  0  0  0
 29 28  1  0  0  0  0
 30 31  1  0  0  0  0
 30 33  1  0  0  0  0
 30 29  1  0  0  0  0
 32 30  1  0  0  0  0
M  END
>  <MODEL>
5

>  <REMARK>
 VINA RESULT:    -6.156      2.536      4.282
 INTER + INTRA:         -13.757
 INTER:                 -12.774
 INTRA:                  -0.983
 UNBOUND:                -1.663
  Name = CHEMBL5289408
  20 active torsions:
  status: ('A' for Active; 'I' for Inactive)
    1  A    between atoms: C_1  and  O_2
    2  A    between atoms: O_2  and  C_3
    3  A    between atoms: C_5  and  C_6
    4  A    between atoms: C_6  and  N_7
    5  A    between atoms: C_8  and  C_10
    6  A    between atoms: C_10  and  C_11
    7  A    between atoms: C_11  and  C_12
    8  A    between atoms: C_12  and  C_13
    9  A    between atoms: C_13  and  C_14
   10  A    between atoms: C_15  and  C_16
   11  A    between atoms: C_16  and  C_17
   12  A    between atoms: C_16  and  C_18
   13  A    between atoms: C_21  and  O_22
   14  A    between atoms: O_22  and  C_23
   15  A    between atoms: C_23  and  C_24
   16  A    between atoms: C_24  and  C_25
   17  A    between atoms: C_25  and  C_26
   18  A    between atoms: C_26  and  C_27
   19  A    between atoms: C_27  and  C_28
   20  A    between atoms: C_28  and  N_29
                            x       y       z     vdW  Elec       q    Type
                         _______ _______ _______ _____ _____    ______ ____

>  <TORSDO>
F 17

>  <SCORE>
-6.156

>  <RMSD_LB>
2.536

>  <RMSD_UB>
4.282

$$$$
CHEMBL5289408
 OpenBabel10162523563D

 33 33  0  0  0  0  0  0  0  0999 V2000
  139.6630  137.6900  151.1160 C   0  0  0  0  0  0  0  0  0  0  0  0
  138.9920  137.9760  152.3140 C   0  0  0  0  0  3  0  0  0  0  0  0
  139.6870  138.1790  153.5130 C   0  0  0  0  0  0  0  0  0  0  0  0
  141.0780  138.1250  153.5000 C   0  0  0  0  0  3  0  0  0  0  0  0
  141.7640  137.8940  152.3050 C   0  0  0  0  0  3  0  0  0  0  0  0
  141.0680  137.7130  151.0990 C   0  0  0  0  0  0  0  0  0  0  0  0
  137.6990  138.0460  149.8380 C   0  0  0  0  0  1  0  0  0  0  0  0
  138.9760  137.4180  149.9570 O   0  0  0  0  0  0  0  0  0  0  0  0
  138.9180  138.4320  154.7850 C   0  0  0  0  0  2  0  0  0  0  0  0
  138.0230  137.3470  155.1130 N   0  0  0  0  0  0  0  0  0  0  0  0
  137.0610  137.4510  156.0890 C   0  0  0  0  0  0  0  0  0  0  0  0
  136.9160  138.4330  156.8110 O   0  0  0  0  0  0  0  0  0  0  0  0
  138.1060  136.5000  154.6190 H   0  0  0  0  0  0  0  0  0  0  0  0
  136.1870  136.2200  156.2100 C   0  0  0  0  0  2  0  0  0  0  0  0
  136.2030  135.4240  154.9140 C   0  0  0  0  0  2  0  0  0  0  0  0
  134.8540  135.4760  154.1970 C   0  0  0  0  0  2  0  0  0  0  0  0
  134.4240  134.0690  153.7830 C   0  0  0  0  0  2  0  0  0  0  0  0
  134.2340  133.9620  152.2990 C   0  0  0  0  0  3  0  0  0  0  0  0
  135.2200  134.1710  151.4120 C   0  0  0  0  0  3  0  0  0  0  0  0
  135.0400  134.0680  149.9190 C   0  0  0  0  0  3  0  0  0  0  0  0
  134.0880  132.9220  149.5780 C   0  0  0  0  0  1  0  0  0  0  0  0
  134.5140  135.3870  149.3540 C   0  0  0  0  0  1  0  0  0  0  0  0
  141.8930  137.5460  150.0120 O   0  0  0  0  0  0  0  0  0  0  0  0
  141.8310  138.5730  149.0250 C   0  0  0  0  0  2  0  0  0  0  0  0
  142.1490  139.9290  149.6600 C   0  0  0  0  0  2  0  0  0  0  0  0
  143.6640  140.1400  149.6820 C   0  0  0  0  0  2  0  0  0  0  0  0
  144.1860  140.4370  151.0870 C   0  0  0  0  0  2  0  0  0  0  0  0
  145.2670  139.4290  151.4880 C   0  0  0  0  0  2  0  0  0  0  0  0
  145.2880  139.2290  153.0010 C   0  0  0  0  0  2  0  0  0  0  0  0
  144.2990  140.0870  153.6420 N   0  0  0  0  0  4  0  0  0  0  0  0
  143.7030  140.5090  152.9320 H   0  0  0  0  0  0  0  0  0  0  0  0
  144.7750  140.8220  154.1670 H   0  0  0  0  0  0  0  0  0  0  0  0
  143.7290  139.5310  154.2800 H   0  0  0  0  0  0  0  0  0  0  0  0
  1  2  1  0  0  0  0
  2  3  2  0  0  0  0
  3  9  1  0  0  0  0
  4  3  1  0  0  0  0
  5  4  2  0  0  0  0
  6  1  2  0  0  0  0
  6  5  1  0  0  0  0
  7  8  1  0  0  0  0
  8  1  1  0  0  0  0
  9 10  1  0  0  0  0
 10 11  1  0  0  0  0
 11 14  1  0  0  0  0
 11 12  2  0  0  0  0
 13 10  1  0  0  0  0
 15 14  1  0  0  0  0
 16 15  1  0  0  0  0
 17 16  1  0  0  0  0
 18 17  1  0  0  0  0
 19 18  2  0  0  0  0
 20 19  1  0  0  0  0
 21 20  1  0  0  0  0
 22 20  1  0  0  0  0
 23  6  1  0  0  0  0
 24 25  1  0  0  0  0
 24 23  1  0  0  0  0
 25 26  1  0  0  0  0
 26 27  1  0  0  0  0
 27 28  1  0  0  0  0
 28 29  1  0  0  0  0
 29 30  1  0  0  0  0
 30 32  1  0  0  0  0
 30 33  1  0  0  0  0
 31 30  1  0  0  0  0
M  END
>  <MODEL>
6

>  <REMARK>
 VINA RESULT:    -6.045      2.872      7.931
 INTER + INTRA:         -13.538
 INTER:                 -11.988
 INTRA:                  -1.550
 UNBOUND:                -1.663
  Name = CHEMBL5289408
  20 active torsions:
  status: ('A' for Active; 'I' for Inactive)
    1  A    between atoms: C_1  and  O_2
    2  A    between atoms: O_2  and  C_3
    3  A    between atoms: C_5  and  C_6
    4  A    between atoms: C_6  and  N_7
    5  A    between atoms: C_8  and  C_10
    6  A    between atoms: C_10  and  C_11
    7  A    between atoms: C_11  and  C_12
    8  A    between atoms: C_12  and  C_13
    9  A    between atoms: C_13  and  C_14
   10  A    between atoms: C_15  and  C_16
   11  A    between atoms: C_16  and  C_17
   12  A    between atoms: C_16  and  C_18
   13  A    between atoms: C_21  and  O_22
   14  A    between atoms: O_22  and  C_23
   15  A    between atoms: C_23  and  C_24
   16  A    between atoms: C_24  and  C_25
   17  A    between atoms: C_25  and  C_26
   18  A    between atoms: C_26  and  C_27
   19  A    between atoms: C_27  and  C_28
   20  A    between atoms: C_28  and  N_29
                            x       y       z     vdW  Elec       q    Type
                         _______ _______ _______ _____ _____    ______ ____

>  <TORSDO>
F 17

>  <SCORE>
-6.045

>  <RMSD_LB>
2.872

>  <RMSD_UB>
7.931

$$$$
CHEMBL5289408
 OpenBabel10162523563D

 33 33  0  0  0  0  0  0  0  0999 V2000
  137.6010  137.1830  153.8390 C   0  0  0  0  0  0  0  0  0  0  0  0
  138.7330  137.9070  153.4380 C   0  0  0  0  0  3  0  0  0  0  0  0
  139.0800  138.0360  152.0870 C   0  0  0  0  0  0  0  0  0  0  0  0
  138.2590  137.4540  151.1250 C   0  0  0  0  0  3  0  0  0  0  0  0
  137.0990  136.7740  151.5050 C   0  0  0  0  0  3  0  0  0  0  0  0
  136.7390  136.6640  152.8580 C   0  0  0  0  0  0  0  0  0  0  0  0
  137.5030  138.1330  156.0080 C   0  0  0  0  0  1  0  0  0  0  0  0
  137.3030  136.9950  155.1680 O   0  0  0  0  0  0  0  0  0  0  0  0
  140.3340  138.7810  151.7090 C   0  0  0  0  0  2  0  0  0  0  0  0
  141.4810  137.9090  151.5980 N   0  0  0  0  0  0  0  0  0  0  0  0
  142.7650  138.3410  151.8310 C   0  0  0  0  0  0  0  0  0  0  0  0
  143.0630  139.5050  152.0840 O   0  0  0  0  0  0  0  0  0  0  0  0
  141.3370  136.9690  151.3450 H   0  0  0  0  0  0  0  0  0  0  0  0
  143.8000  137.2410  151.7330 C   0  0  0  0  0  2  0  0  0  0  0  0
  145.1160  137.6880  152.3520 C   0  0  0  0  0  2  0  0  0  0  0  0
  145.1660  137.4010  153.8520 C   0  0  0  0  0  2  0  0  0  0  0  0
  146.0550  138.4270  154.5540 C   0  0  0  0  0  2  0  0  0  0  0  0
  146.3050  139.6280  153.6900 C   0  0  0  0  0  3  0  0  0  0  0  0
  146.8070  140.7810  154.1570 C   0  0  0  0  0  3  0  0  0  0  0  0
  147.0610  141.9940  153.2980 C   0  0  0  0  0  3  0  0  0  0  0  0
  148.4280  141.8880  152.6230 C   0  0  0  0  0  1  0  0  0  0  0  0
  145.9580  142.1450  152.2510 C   0  0  0  0  0  1  0  0  0  0  0  0
  135.5470  136.0080  153.0550 O   0  0  0  0  0  0  0  0  0  0  0  0
  135.2200  135.0180  152.0820 C   0  0  0  0  0  2  0  0  0  0  0  0
  133.7020  134.9380  151.9070 C   0  0  0  0  0  2  0  0  0  0  0  0
  133.2070  136.1750  151.1560 C   0  0  0  0  0  2  0  0  0  0  0  0
  133.4230  136.0610  149.6480 C   0  0  0  0  0  2  0  0  0  0  0  0
  132.5820  137.1000  148.9000 C   0  0  0  0  0  2  0  0  0  0  0  0
  132.5930  136.8270  147.3980 C   0  0  0  0  0  2  0  0  0  0  0  0
  133.2820  137.8990  146.6900 N   0  0  0  0  0  4  0  0  0  0  0  0
  133.7740  137.5140  145.8850 H   0  0  0  0  0  0  0  0  0  0  0  0
  133.9530  138.3450  147.3170 H   0  0  0  0  0  0  0  0  0  0  0  0
  132.6010  138.5900  146.3750 H   0  0  0  0  0  0  0  0  0  0  0  0
  1  8  1  0  0  0  0
  2  1  1  0  0  0  0
  3  2  2  0  0  0  0
  4  5  2  0  0  0  0
  4  3  1  0  0  0  0
  5  6  1  0  0  0  0
  6 23  1  0  0  0  0
  6  1  2  0  0  0  0
  8  7  1  0  0  0  0
  9  3  1  0  0  0  0
 10  9  1  0  0  0  0
 10 11  1  0  0  0  0
 11 12  2  0  0  0  0
 13 10  1  0  0  0  0
 14 11  1  0  0  0  0
 14 15  1  0  0  0  0
 15 16  1  0  0  0  0
 16 17  1  0  0  0  0
 18 19  2  0  0  0  0
 18 17  1  0  0  0  0
 20 19  1  0  0  0  0
 21 20  1  0  0  0  0
 22 20  1  0  0  0  0
 24 23  1  0  0  0  0
 25 24  1  0  0  0  0
 26 25  1  0  0  0  0
 27 26  1  0  0  0  0
 28 27  1  0  0  0  0
 29 28  1  0  0  0  0
 30 32  1  0  0  0  0
 30 29  1  0  0  0  0
 31 30  1  0  0  0  0
 33 30  1  0  0  0  0
M  END
>  <MODEL>
7

>  <REMARK>
 VINA RESULT:    -6.044      3.669      6.011
 INTER + INTRA:         -13.538
 INTER:                 -12.258
 INTRA:                  -1.280
 UNBOUND:                -1.663
  Name = CHEMBL5289408
  20 active torsions:
  status: ('A' for Active; 'I' for Inactive)
    1  A    between atoms: C_1  and  O_2
    2  A    between atoms: O_2  and  C_3
    3  A    between atoms: C_5  and  C_6
    4  A    between atoms: C_6  and  N_7
    5  A    between atoms: C_8  and  C_10
    6  A    between atoms: C_10  and  C_11
    7  A    between atoms: C_11  and  C_12
    8  A    between atoms: C_12  and  C_13
    9  A    between atoms: C_13  and  C_14
   10  A    between atoms: C_15  and  C_16
   11  A    between atoms: C_16  and  C_17
   12  A    between atoms: C_16  and  C_18
   13  A    between atoms: C_21  and  O_22
   14  A    between atoms: O_22  and  C_23
   15  A    between atoms: C_23  and  C_24
   16  A    between atoms: C_24  and  C_25
   17  A    between atoms: C_25  and  C_26
   18  A    between atoms: C_26  and  C_27
   19  A    between atoms: C_27  and  C_28
   20  A    between atoms: C_28  and  N_29
                            x       y       z     vdW  Elec       q    Type
                         _______ _______ _______ _____ _____    ______ ____

>  <TORSDO>
F 17

>  <SCORE>
-6.044

>  <RMSD_LB>
3.669

>  <RMSD_UB>
6.011

$$$$
CHEMBL5289408
 OpenBabel10162523563D

 33 33  0  0  0  0  0  0  0  0999 V2000
  143.0420  137.4400  151.2290 C   0  0  0  0  0  0  0  0  0  0  0  0
  141.6530  137.6320  151.2700 C   0  0  0  0  0  3  0  0  0  0  0  0
  140.9830  137.8860  152.4740 C   0  0  0  0  0  0  0  0  0  0  0  0
  141.7250  137.9780  153.6480 C   0  0  0  0  0  3  0  0  0  0  0  0
  143.1150  137.8420  153.6170 C   0  0  0  0  0  3  0  0  0  0  0  0
  143.7890  137.6100  152.4070 C   0  0  0  0  0  0  0  0  0  0  0  0
  143.6530  135.7350  149.7000 C   0  0  0  0  0  1  0  0  0  0  0  0
  143.6870  137.1170  150.0590 O   0  0  0  0  0  0  0  0  0  0  0  0
  139.4830  138.0350  152.4740 C   0  0  0  0  0  2  0  0  0  0  0  0
  138.9030  137.7670  153.7690 N   0  0  0  0  0  0  0  0  0  0  0  0
  137.6540  137.2130  153.9210 C   0  0  0  0  0  0  0  0  0  0  0  0
  136.8960  136.9610  152.9890 O   0  0  0  0  0  0  0  0  0  0  0  0
  139.4230  137.9910  154.5750 H   0  0  0  0  0  0  0  0  0  0  0  0
  137.2810  136.9500  155.3640 C   0  0  0  0  0  2  0  0  0  0  0  0
  135.8030  136.6100  155.4810 C   0  0  0  0  0  2  0  0  0  0  0  0
  135.5800  135.2840  156.2070 C   0  0  0  0  0  2  0  0  0  0  0  0
  134.5380  134.4460  155.4650 C   0  0  0  0  0  2  0  0  0  0  0  0
  134.7760  134.4520  153.9830 C   0  0  0  0  0  3  0  0  0  0  0  0
  133.8120  134.6990  153.0830 C   0  0  0  0  0  3  0  0  0  0  0  0
  134.0400  134.7060  151.5930 C   0  0  0  0  0  3  0  0  0  0  0  0
  133.6200  133.3670  150.9870 C   0  0  0  0  0  1  0  0  0  0  0  0
  133.2680  135.8530  150.9420 C   0  0  0  0  0  1  0  0  0  0  0  0
  145.1560  137.5490  152.5460 O   0  0  0  0  0  0  0  0  0  0  0  0
  145.8790  138.6650  152.0310 C   0  0  0  0  0  2  0  0  0  0  0  0
  146.6670  139.3420  153.1550 C   0  0  0  0  0  2  0  0  0  0  0  0
  145.7700  140.3540  153.8700 C   0  0  0  0  0  2  0  0  0  0  0  0
  146.2420  141.7920  153.6610 C   0  0  0  0  0  2  0  0  0  0  0  0
  146.7150  142.0040  152.2200 C   0  0  0  0  0  2  0  0  0  0  0  0
  145.6090  142.6270  151.3720 C   0  0  0  0  0  2  0  0  0  0  0  0
  145.7710  142.2560  149.9720 N   0  0  0  0  0  4  0  0  0  0  0  0
  145.9770  143.0880  149.4210 H   0  0  0  0  0  0  0  0  0  0  0  0
  144.9100  141.8270  149.6320 H   0  0  0  0  0  0  0  0  0  0  0  0
  146.5390  141.5900  149.8830 H   0  0  0  0  0  0  0  0  0  0  0  0
  1  2  2  0  0  0  0
  1  6  1  0  0  0  0
  2  3  1  0  0  0  0
  3  4  2  0  0  0  0
  5  4  1  0  0  0  0
  6 23  1  0  0  0  0
  6  5  2  0  0  0  0
  7  8  1  0  0  0  0
  8  1  1  0  0  0  0
  9  3  1  0  0  0  0
  9 10  1  0  0  0  0
 10 11  1  0  0  0  0
 10 13  1  0  0  0  0
 11 14  1  0  0  0  0
 12 11  2  0  0  0  0
 14 15  1  0  0  0  0
 15 16  1  0  0  0  0
 17 16  1  0  0  0  0
 18 17  1  0  0  0  0
 19 18  2  0  0  0  0
 20 19  1  0  0  0  0
 21 20  1  0  0  0  0
 22 20  1  0  0  0  0
 24 23  1  0  0  0  0
 24 25  1  0  0  0  0
 25 26  1  0  0  0  0
 27 26  1  0  0  0  0
 28 27  1  0  0  0  0
 29 28  1  0  0  0  0
 30 29  1  0  0  0  0
 31 30  1  0  0  0  0
 32 30  1  0  0  0  0
 33 30  1  0  0  0  0
M  END
>  <MODEL>
8

>  <REMARK>
 VINA RESULT:    -6.028      3.982      9.544
 INTER + INTRA:         -13.505
 INTER:                 -12.305
 INTRA:                  -1.200
 UNBOUND:                -1.663
  Name = CHEMBL5289408
  20 active torsions:
  status: ('A' for Active; 'I' for Inactive)
    1  A    between atoms: C_1  and  O_2
    2  A    between atoms: O_2  and  C_3
    3  A    between atoms: C_5  and  C_6
    4  A    between atoms: C_6  and  N_7
    5  A    between atoms: C_8  and  C_10
    6  A    between atoms: C_10  and  C_11
    7  A    between atoms: C_11  and  C_12
    8  A    between atoms: C_12  and  C_13
    9  A    between atoms: C_13  and  C_14
   10  A    between atoms: C_15  and  C_16
   11  A    between atoms: C_16  and  C_17
   12  A    between atoms: C_16  and  C_18
   13  A    between atoms: C_21  and  O_22
   14  A    between atoms: O_22  and  C_23
   15  A    between atoms: C_23  and  C_24
   16  A    between atoms: C_24  and  C_25
   17  A    between atoms: C_25  and  C_26
   18  A    between atoms: C_26  and  C_27
   19  A    between atoms: C_27  and  C_28
   20  A    between atoms: C_28  and  N_29
                            x       y       z     vdW  Elec       q    Type
                         _______ _______ _______ _____ _____    ______ ____

>  <TORSDO>
F 17

>  <SCORE>
-6.028

>  <RMSD_LB>
3.982

>  <RMSD_UB>
9.544

$$$$
CHEMBL5289408
 OpenBabel10162523563D

 33 33  0  0  0  0  0  0  0  0999 V2000
  134.9810  135.7330  150.4470 C   0  0  0  0  0  0  0  0  0  0  0  0
  134.7930  135.0190  149.2540 C   0  0  0  0  0  3  0  0  0  0  0  0
  133.7410  134.1090  149.1020 C   0  0  0  0  0  0  0  0  0  0  0  0
  132.8450  133.9370  150.1540 C   0  0  0  0  0  3  0  0  0  0  0  0
  132.9860  134.6780  151.3290 C   0  0  0  0  0  3  0  0  0  0  0  0
  134.0280  135.6090  151.4730 C   0  0  0  0  0  0  0  0  0  0  0  0
  136.5860  137.1460  149.4250 C   0  0  0  0  0  1  0  0  0  0  0  0
  136.0570  136.5710  150.6200 O   0  0  0  0  0  0  0  0  0  0  0  0
  133.6120  133.3270  147.8190 C   0  0  0  0  0  2  0  0  0  0  0  0
  134.8140  133.3750  147.0210 N   0  0  0  0  0  0  0  0  0  0  0  0
  135.6250  132.2810  146.8370 C   0  0  0  0  0  0  0  0  0  0  0  0
  135.4460  131.1940  147.3780 O   0  0  0  0  0  0  0  0  0  0  0  0
  135.0640  134.2260  146.5940 H   0  0  0  0  0  0  0  0  0  0  0  0
  136.7870  132.5400  145.9020 C   0  0  0  0  0  2  0  0  0  0  0  0
  136.9740  134.0320  145.6810 C   0  0  0  0  0  2  0  0  0  0  0  0
  138.2340  134.5570  146.3680 C   0  0  0  0  0  2  0  0  0  0  0  0
  138.2640  134.1060  147.8280 C   0  0  0  0  0  2  0  0  0  0  0  0
  139.4760  134.6270  148.5440 C   0  0  0  0  0  3  0  0  0  0  0  0
  139.9500  135.8710  148.3810 C   0  0  0  0  0  3  0  0  0  0  0  0
  141.1670  136.4050  149.0930 C   0  0  0  0  0  3  0  0  0  0  0  0
  141.8810  137.4360  148.2210 C   0  0  0  0  0  1  0  0  0  0  0  0
  140.7710  137.0200  150.4350 C   0  0  0  0  0  1  0  0  0  0  0  0
  133.9940  136.2870  152.6680 O   0  0  0  0  0  0  0  0  0  0  0  0
  134.0140  135.4750  153.8400 C   0  0  0  0  0  2  0  0  0  0  0  0
  135.4580  135.1860  154.2540 C   0  0  0  0  0  2  0  0  0  0  0  0
  135.7650  135.9020  155.5710 C   0  0  0  0  0  2  0  0  0  0  0  0
  137.2630  136.1310  155.7690 C   0  0  0  0  0  2  0  0  0  0  0  0
  137.5310  137.5510  156.2760 C   0  0  0  0  0  2  0  0  0  0  0  0
  137.7030  138.5210  155.1110 C   0  0  0  0  0  2  0  0  0  0  0  0
  138.0920  137.8030  153.9030 N   0  0  0  0  0  4  0  0  0  0  0  0
  137.4290  137.0500  153.7270 H   0  0  0  0  0  0  0  0  0  0  0  0
  139.0260  137.4120  154.0260 H   0  0  0  0  0  0  0  0  0  0  0  0
  138.0950  138.4470  153.1120 H   0  0  0  0  0  0  0  0  0  0  0  0
  1  8  1  0  0  0  0
  1  6  1  0  0  0  0
  2  1  2  0  0  0  0
  3  2  1  0  0  0  0
  3  4  2  0  0  0  0
  4  5  1  0  0  0  0
  5  6  2  0  0  0  0
  6 23  1  0  0  0  0
  7  8  1  0  0  0  0
  9  3  1  0  0  0  0
 10  9  1  0  0  0  0
 11 10  1  0  0  0  0
 11 12  2  0  0  0  0
 13 10  1  0  0  0  0
 14 11  1  0  0  0  0
 15 14  1  0  0  0  0
 15 16  1  0  0  0  0
 16 17  1  0  0  0  0
 17 18  1  0  0  0  0
 19 18  2  0  0  0  0
 19 20  1  0  0  0  0
 20 22  1  0  0  0  0
 21 20  1  0  0  0  0
 23 24  1  0  0  0  0
 24 25  1  0  0  0  0
 25 26  1  0  0  0  0
 26 27  1  0  0  0  0
 27 28  1  0  0  0  0
 29 28  1  0  0  0  0
 30 32  1  0  0  0  0
 30 29  1  0  0  0  0
 31 30  1  0  0  0  0
 33 30  1  0  0  0  0
M  END
>  <MODEL>
9

>  <REMARK>
 VINA RESULT:    -5.860      2.433      7.438
 INTER + INTRA:         -13.176
 INTER:                 -11.513
 INTRA:                  -1.663
 UNBOUND:                -1.663
  Name = CHEMBL5289408
  20 active torsions:
  status: ('A' for Active; 'I' for Inactive)
    1  A    between atoms: C_1  and  O_2
    2  A    between atoms: O_2  and  C_3
    3  A    between atoms: C_5  and  C_6
    4  A    between atoms: C_6  and  N_7
    5  A    between atoms: C_8  and  C_10
    6  A    between atoms: C_10  and  C_11
    7  A    between atoms: C_11  and  C_12
    8  A    between atoms: C_12  and  C_13
    9  A    between atoms: C_13  and  C_14
   10  A    between atoms: C_15  and  C_16
   11  A    between atoms: C_16  and  C_17
   12  A    between atoms: C_16  and  C_18
   13  A    between atoms: C_21  and  O_22
   14  A    between atoms: O_22  and  C_23
   15  A    between atoms: C_23  and  C_24
   16  A    between atoms: C_24  and  C_25
   17  A    between atoms: C_25  and  C_26
   18  A    between atoms: C_26  and  C_27
   19  A    between atoms: C_27  and  C_28
   20  A    between atoms: C_28  and  N_29
                            x       y       z     vdW  Elec       q    Type
                         _______ _______ _______ _____ _____    ______ ____

>  <TORSDO>
F 17

>  <SCORE>
-5.860

>  <RMSD_LB>
2.433

>  <RMSD_UB>
7.438

$$$$
