CHEMBL4520001
 OpenBabel10172500443D

 29 30  0  0  0  0  0  0  0  0999 V2000
  142.6280  140.0340  151.2230 N   0  0  0  0  0  0  0  0  0  0  0  0
  141.5290  139.8690  150.4150 C   0  0  0  0  0  0  0  0  0  0  0  0
  141.5410  140.0390  149.2000 O   0  0  0  0  0  0  0  0  0  0  0  0
  142.5380  139.8680  152.1890 H   0  0  0  0  0  0  0  0  0  0  0  0
  140.3060  139.4570  151.1530 C   0  0  0  0  0  3  0  0  0  0  0  0
  140.4170  138.5970  152.1820 C   0  0  0  0  0  3  0  0  0  0  0  0
  139.2810  138.2000  153.0230 C   0  0  0  0  0  0  0  0  0  0  0  0
  138.3020  137.4300  152.3630 C   0  0  0  0  0  3  0  0  0  0  0  0
  137.1820  136.9430  153.0420 C   0  0  0  0  0  3  0  0  0  0  0  0
  136.9950  137.2030  154.4020 C   0  0  0  0  0  0  0  0  0  0  0  0
  137.9590  137.9800  155.0830 C   0  0  0  0  0  0  0  0  0  0  0  0
  139.1030  138.4880  154.3880 C   0  0  0  0  0  0  0  0  0  0  0  0
  135.9210  136.7280  155.1040 O   0  0  0  0  0  0  0  0  0  0  0  0
  135.1420  135.6730  154.5600 C   0  0  0  0  0  1  0  0  0  0  0  0
  137.9260  138.3330  156.4170 O   0  0  0  0  0  0  0  0  0  0  0  0
  138.1160  137.3460  157.4190 C   0  0  0  0  0  1  0  0  0  0  0  0
  140.0020  139.1560  155.1880 O   0  0  0  0  0  0  0  0  0  0  0  0
  141.2080  138.5110  155.5670 C   0  0  0  0  0  1  0  0  0  0  0  0
  143.9140  140.4440  150.6980 C   0  0  0  0  0  2  0  0  0  0  0  0
  146.0040  140.3060  153.9020 C   0  0  0  0  0  0  0  0  0  0  0  0
  145.0830  139.9800  152.8970 C   0  0  0  0  0  3  0  0  0  0  0  0
  144.8930  140.8200  151.7840 C   0  0  0  0  0  0  0  0  0  0  0  0
  145.6370  142.0040  151.6980 C   0  0  0  0  0  3  0  0  0  0  0  0
  146.5570  142.3410  152.6940 C   0  0  0  0  0  3  0  0  0  0  0  0
  146.7360  141.4950  153.7880 C   0  0  0  0  0  0  0  0  0  0  0  0
  146.7040  138.2070  154.7880 C   0  0  0  0  0  1  0  0  0  0  0  0
  146.2620  139.5390  155.0100 O   0  0  0  0  0  0  0  0  0  0  0  0
  147.6380  141.8260  154.7630 O   0  0  0  0  0  0  0  0  0  0  0  0
  147.3400  142.0190  155.6310 H   0  0  0  0  0  0  0  0  0  0  0  0
  1  4  1  0  0  0  0
  2  5  1  0  0  0  0
  2  1  1  0  0  0  0
  3  2  2  0  0  0  0
  5  6  2  0  0  0  0
  6  7  1  0  0  0  0
  7 12  1  0  0  0  0
  8  7  2  0  0  0  0
  8  9  1  0  0  0  0
  9 10  2  0  0  0  0
 10 11  1  0  0  0  0
 10 13  1  0  0  0  0
 11 15  1  0  0  0  0
 12 11  2  0  0  0  0
 12 17  1  0  0  0  0
 14 13  1  0  0  0  0
 15 16  1  0  0  0  0
 17 18  1  0  0  0  0
 19  1  1  0  0  0  0
 19 22  1  0  0  0  0
 20 27  1  0  0  0  0
 21 20  2  0  0  0  0
 22 21  1  0  0  0  0
 23 22  2  0  0  0  0
 23 24  1  0  0  0  0
 24 25  2  0  0  0  0
 25 20  1  0  0  0  0
 25 28  1  0  0  0  0
 26 27  1  0  0  0  0
 28 29  1  0  0  0  0
M  END
>  <MODEL>
1

>  <REMARK>
 VINA RESULT:    -7.472      0.000      0.000
 INTER + INTRA:         -11.910
 INTER:                 -11.265
 INTRA:                  -0.644
 UNBOUND:                -0.725
  Name = CHEMBL4520001
  13 active torsions:
  status: ('A' for Active; 'I' for Inactive)
    1  A    between atoms: C_1  and  O_2
    2  A    between atoms: O_2  and  C_3
    3  A    between atoms: C_5  and  C_6
    4  A    between atoms: C_6  and  N_7
    5  A    between atoms: C_8  and  C_10
    6  A    between atoms: C_11  and  C_12
    7  A    between atoms: C_15  and  O_16
    8  A    between atoms: O_16  and  C_17
    9  A    between atoms: C_18  and  O_19
   10  A    between atoms: O_19  and  C_20
   11  A    between atoms: C_21  and  O_22
   12  A    between atoms: O_22  and  C_23
   13  A    between atoms: C_26  and  O_27
                            x       y       z     vdW  Elec       q    Type
                         _______ _______ _______ _____ _____    ______ ____

>  <TORSDO>
F 9

>  <SCORE>
-7.472

>  <RMSD_LB>
0.000

>  <RMSD_UB>
0.000

$$$$
CHEMBL4520001
 OpenBabel10172500443D

 29 30  0  0  0  0  0  0  0  0999 V2000
  138.4820  137.5930  153.9920 N   0  0  0  0  0  0  0  0  0  0  0  0
  139.3070  138.6890  153.9300 C   0  0  0  0  0  0  0  0  0  0  0  0
  139.1380  139.7120  154.5870 O   0  0  0  0  0  0  0  0  0  0  0  0
  138.6930  136.8070  153.4380 H   0  0  0  0  0  0  0  0  0  0  0  0
  140.4430  138.5250  152.9850 C   0  0  0  0  0  3  0  0  0  0  0  0
  141.5190  137.8130  153.3670 C   0  0  0  0  0  3  0  0  0  0  0  0
  142.6490  137.5250  152.4750 C   0  0  0  0  0  0  0  0  0  0  0  0
  142.2840  137.1280  151.1730 C   0  0  0  0  0  3  0  0  0  0  0  0
  143.2490  136.8590  150.1990 C   0  0  0  0  0  3  0  0  0  0  0  0
  144.6120  136.9750  150.4840 C   0  0  0  0  0  0  0  0  0  0  0  0
  145.0030  137.3620  151.7850 C   0  0  0  0  0  0  0  0  0  0  0  0
  144.0160  137.6300  152.7870 C   0  0  0  0  0  0  0  0  0  0  0  0
  145.5840  136.7380  149.5510 O   0  0  0  0  0  0  0  0  0  0  0  0
  145.6500  137.5490  148.3870 C   0  0  0  0  0  1  0  0  0  0  0  0
  146.2980  137.5200  152.2340 O   0  0  0  0  0  0  0  0  0  0  0  0
  147.0800  138.6150  151.7840 C   0  0  0  0  0  1  0  0  0  0  0  0
  144.5310  138.0780  153.9830 O   0  0  0  0  0  0  0  0  0  0  0  0
  144.4590  139.4600  154.2960 C   0  0  0  0  0  1  0  0  0  0  0  0
  137.3130  137.5580  154.8450 C   0  0  0  0  0  2  0  0  0  0  0  0
  134.8840  134.6440  155.3610 C   0  0  0  0  0  0  0  0  0  0  0  0
  135.7310  135.7330  155.6110 C   0  0  0  0  0  3  0  0  0  0  0  0
  136.4220  136.3710  154.5640 C   0  0  0  0  0  0  0  0  0  0  0  0
  136.2600  135.8920  153.2570 C   0  0  0  0  0  3  0  0  0  0  0  0
  135.4200  134.8050  152.9960 C   0  0  0  0  0  3  0  0  0  0  0  0
  134.7390  134.1890  154.0450 C   0  0  0  0  0  0  0  0  0  0  0  0
  133.9100  134.6620  157.5360 C   0  0  0  0  0  1  0  0  0  0  0  0
  134.1630  133.9750  156.3180 O   0  0  0  0  0  0  0  0  0  0  0  0
  133.9160  133.1240  153.7880 O   0  0  0  0  0  0  0  0  0  0  0  0
  133.3090  132.8330  154.4400 H   0  0  0  0  0  0  0  0  0  0  0  0
  1 19  1  0  0  0  0
  2  1  1  0  0  0  0
  2  3  2  0  0  0  0
  4  1  1  0  0  0  0
  5  6  2  0  0  0  0
  5  2  1  0  0  0  0
  7 12  1  0  0  0  0
  7  6  1  0  0  0  0
  8  7  2  0  0  0  0
  9 10  2  0  0  0  0
  9  8  1  0  0  0  0
 10 11  1  0  0  0  0
 11 15  1  0  0  0  0
 11 12  2  0  0  0  0
 12 17  1  0  0  0  0
 13 10  1  0  0  0  0
 14 13  1  0  0  0  0
 16 15  1  0  0  0  0
 17 18  1  0  0  0  0
 20 21  1  0  0  0  0
 20 27  1  0  0  0  0
 22 19  1  0  0  0  0
 22 21  2  0  0  0  0
 23 22  1  0  0  0  0
 24 23  2  0  0  0  0
 24 25  1  0  0  0  0
 25 20  2  0  0  0  0
 27 26  1  0  0  0  0
 28 25  1  0  0  0  0
 28 29  1  0  0  0  0
M  END
>  <MODEL>
2

>  <REMARK>
 VINA RESULT:    -7.075      2.837      9.458
 INTER + INTRA:         -11.315
 INTER:                 -10.762
 INTRA:                  -0.553
 UNBOUND:                -0.725
  Name = CHEMBL4520001
  13 active torsions:
  status: ('A' for Active; 'I' for Inactive)
    1  A    between atoms: C_1  and  O_2
    2  A    between atoms: O_2  and  C_3
    3  A    between atoms: C_5  and  C_6
    4  A    between atoms: C_6  and  N_7
    5  A    between atoms: C_8  and  C_10
    6  A    between atoms: C_11  and  C_12
    7  A    between atoms: C_15  and  O_16
    8  A    between atoms: O_16  and  C_17
    9  A    between atoms: C_18  and  O_19
   10  A    between atoms: O_19  and  C_20
   11  A    between atoms: C_21  and  O_22
   12  A    between atoms: O_22  and  C_23
   13  A    between atoms: C_26  and  O_27
                            x       y       z     vdW  Elec       q    Type
                         _______ _______ _______ _____ _____    ______ ____

>  <TORSDO>
F 9

>  <SCORE>
-7.075

>  <RMSD_LB>
2.837

>  <RMSD_UB>
9.458

$$$$
CHEMBL4520001
 OpenBabel10172500443D

 29 30  0  0  0  0  0  0  0  0999 V2000
  138.7540  138.1110  155.5010 N   0  0  0  0  0  0  0  0  0  0  0  0
  140.1200  138.0500  155.6290 C   0  0  0  0  0  0  0  0  0  0  0  0
  140.6990  137.4390  156.5220 O   0  0  0  0  0  0  0  0  0  0  0  0
  138.3680  138.6150  154.7490 H   0  0  0  0  0  0  0  0  0  0  0  0
  140.8490  138.7970  154.5690 C   0  0  0  0  0  3  0  0  0  0  0  0
  142.0650  138.3710  154.1820 C   0  0  0  0  0  3  0  0  0  0  0  0
  142.8220  138.9900  153.0870 C   0  0  0  0  0  0  0  0  0  0  0  0
  142.1890  138.9320  151.8290 C   0  0  0  0  0  3  0  0  0  0  0  0
  142.7680  139.5150  150.6980 C   0  0  0  0  0  3  0  0  0  0  0  0
  143.9960  140.1760  150.7780 C   0  0  0  0  0  0  0  0  0  0  0  0
  144.6540  140.2390  152.0260 C   0  0  0  0  0  0  0  0  0  0  0  0
  144.0670  139.6360  153.1850 C   0  0  0  0  0  0  0  0  0  0  0  0
  144.5840  140.7730  149.6960 O   0  0  0  0  0  0  0  0  0  0  0  0
  145.4310  140.0100  148.8500 C   0  0  0  0  0  1  0  0  0  0  0  0
  145.8680  140.8460  152.2780 O   0  0  0  0  0  0  0  0  0  0  0  0
  145.9500  142.2590  152.3800 C   0  0  0  0  0  1  0  0  0  0  0  0
  144.7710  139.8440  154.3490 O   0  0  0  0  0  0  0  0  0  0  0  0
  145.5880  138.8030  154.8620 C   0  0  0  0  0  1  0  0  0  0  0  0
  137.8640  137.4580  156.4390 C   0  0  0  0  0  2  0  0  0  0  0  0
  134.9290  135.0610  155.8970 C   0  0  0  0  0  0  0  0  0  0  0  0
  135.9000  135.8600  156.5170 C   0  0  0  0  0  3  0  0  0  0  0  0
  136.8390  136.5840  155.7580 C   0  0  0  0  0  0  0  0  0  0  0  0
  136.7980  136.4850  154.3600 C   0  0  0  0  0  3  0  0  0  0  0  0
  135.8350  135.6900  153.7310 C   0  0  0  0  0  3  0  0  0  0  0  0
  134.9100  134.9840  154.4980 C   0  0  0  0  0  0  0  0  0  0  0  0
  133.8600  134.5350  157.9610 C   0  0  0  0  0  1  0  0  0  0  0  0
  133.9700  134.3370  156.5580 O   0  0  0  0  0  0  0  0  0  0  0  0
  133.9680  134.2060  153.8800 O   0  0  0  0  0  0  0  0  0  0  0  0
  134.2270  133.5890  153.2240 H   0  0  0  0  0  0  0  0  0  0  0  0
  1  2  1  0  0  0  0
  1 19  1  0  0  0  0
  2  3  2  0  0  0  0
  4  1  1  0  0  0  0
  5  2  1  0  0  0  0
  6  5  2  0  0  0  0
  7 12  1  0  0  0  0
  7  6  1  0  0  0  0
  8  7  2  0  0  0  0
  9 10  2  0  0  0  0
  9  8  1  0  0  0  0
 10 11  1  0  0  0  0
 11 15  1  0  0  0  0
 11 12  2  0  0  0  0
 12 17  1  0  0  0  0
 13 10  1  0  0  0  0
 14 13  1  0  0  0  0
 15 16  1  0  0  0  0
 17 18  1  0  0  0  0
 20 21  1  0  0  0  0
 20 27  1  0  0  0  0
 22 19  1  0  0  0  0
 22 21  2  0  0  0  0
 23 22  1  0  0  0  0
 24 23  2  0  0  0  0
 24 25  1  0  0  0  0
 25 20  2  0  0  0  0
 27 26  1  0  0  0  0
 28 25  1  0  0  0  0
 29 28  1  0  0  0  0
M  END
>  <MODEL>
3

>  <REMARK>
 VINA RESULT:    -6.977      2.282      9.467
 INTER + INTRA:         -11.168
 INTER:                 -10.598
 INTRA:                  -0.570
 UNBOUND:                -0.725
  Name = CHEMBL4520001
  13 active torsions:
  status: ('A' for Active; 'I' for Inactive)
    1  A    between atoms: C_1  and  O_2
    2  A    between atoms: O_2  and  C_3
    3  A    between atoms: C_5  and  C_6
    4  A    between atoms: C_6  and  N_7
    5  A    between atoms: C_8  and  C_10
    6  A    between atoms: C_11  and  C_12
    7  A    between atoms: C_15  and  O_16
    8  A    between atoms: O_16  and  C_17
    9  A    between atoms: C_18  and  O_19
   10  A    between atoms: O_19  and  C_20
   11  A    between atoms: C_21  and  O_22
   12  A    between atoms: O_22  and  C_23
   13  A    between atoms: C_26  and  O_27
                            x       y       z     vdW  Elec       q    Type
                         _______ _______ _______ _____ _____    ______ ____

>  <TORSDO>
F 9

>  <SCORE>
-6.977

>  <RMSD_LB>
2.282

>  <RMSD_UB>
9.467

$$$$
CHEMBL4520001
 OpenBabel10172500443D

 29 30  0  0  0  0  0  0  0  0999 V2000
  143.5080  139.0980  154.1090 N   0  0  0  0  0  0  0  0  0  0  0  0
  142.1740  139.1710  154.4250 C   0  0  0  0  0  0  0  0  0  0  0  0
  141.7390  139.6880  155.4500 O   0  0  0  0  0  0  0  0  0  0  0  0
  143.7750  138.6740  153.2610 H   0  0  0  0  0  0  0  0  0  0  0  0
  141.2870  138.5610  153.3990 C   0  0  0  0  0  3  0  0  0  0  0  0
  140.0180  138.2520  153.7260 C   0  0  0  0  0  3  0  0  0  0  0  0
  139.0450  137.7290  152.7600 C   0  0  0  0  0  0  0  0  0  0  0  0
  139.5500  137.5430  151.4570 C   0  0  0  0  0  3  0  0  0  0  0  0
  138.7550  137.0140  150.4380 C   0  0  0  0  0  3  0  0  0  0  0  0
  137.4280  136.6480  150.6770 C   0  0  0  0  0  0  0  0  0  0  0  0
  136.8960  136.8320  151.9730 C   0  0  0  0  0  0  0  0  0  0  0  0
  137.7060  137.3830  153.0170 C   0  0  0  0  0  0  0  0  0  0  0  0
  136.6250  136.1090  149.7090 O   0  0  0  0  0  0  0  0  0  0  0  0
  136.7420  134.7300  149.3900 C   0  0  0  0  0  1  0  0  0  0  0  0
  135.6110  136.5300  152.3770 O   0  0  0  0  0  0  0  0  0  0  0  0
  135.2640  135.1940  152.7060 C   0  0  0  0  0  1  0  0  0  0  0  0
  137.0900  137.4300  154.2470 O   0  0  0  0  0  0  0  0  0  0  0  0
  137.5280  136.5560  155.2770 C   0  0  0  0  0  1  0  0  0  0  0  0
  144.5350  139.6250  154.9830 C   0  0  0  0  0  2  0  0  0  0  0  0
  148.2550  139.8100  154.1000 C   0  0  0  0  0  0  0  0  0  0  0  0
  146.9540  140.1760  154.4720 C   0  0  0  0  0  3  0  0  0  0  0  0
  145.9270  139.2190  154.5590 C   0  0  0  0  0  0  0  0  0  0  0  0
  146.2200  137.8830  154.2550 C   0  0  0  0  0  3  0  0  0  0  0  0
  147.5130  137.5060  153.8810 C   0  0  0  0  0  3  0  0  0  0  0  0
  148.5210  138.4670  153.8050 C   0  0  0  0  0  0  0  0  0  0  0  0
  149.1000  141.8930  153.3090 C   0  0  0  0  0  1  0  0  0  0  0  0
  149.3170  140.6730  154.0050 O   0  0  0  0  0  0  0  0  0  0  0  0
  149.7870  138.0960  153.4380 O   0  0  0  0  0  0  0  0  0  0  0  0
  150.3710  137.7310  154.0740 H   0  0  0  0  0  0  0  0  0  0  0  0
  1  2  1  0  0  0  0
  1 19  1  0  0  0  0
  2  3  2  0  0  0  0
  4  1  1  0  0  0  0
  5  6  2  0  0  0  0
  5  2  1  0  0  0  0
  7 12  1  0  0  0  0
  7  6  1  0  0  0  0
  8  7  2  0  0  0  0
  9 10  2  0  0  0  0
  9  8  1  0  0  0  0
 10 11  1  0  0  0  0
 11 15  1  0  0  0  0
 11 12  2  0  0  0  0
 12 17  1  0  0  0  0
 13 10  1  0  0  0  0
 14 13  1  0  0  0  0
 15 16  1  0  0  0  0
 17 18  1  0  0  0  0
 20 21  1  0  0  0  0
 21 22  2  0  0  0  0
 22 19  1  0  0  0  0
 23 22  1  0  0  0  0
 24 23  2  0  0  0  0
 25 24  1  0  0  0  0
 25 20  2  0  0  0  0
 26 27  1  0  0  0  0
 27 20  1  0  0  0  0
 28 25  1  0  0  0  0
 28 29  1  0  0  0  0
M  END
>  <MODEL>
4

>  <REMARK>
 VINA RESULT:    -6.911      2.512      3.975
 INTER + INTRA:         -11.070
 INTER:                 -10.618
 INTRA:                  -0.452
 UNBOUND:                -0.725
  Name = CHEMBL4520001
  13 active torsions:
  status: ('A' for Active; 'I' for Inactive)
    1  A    between atoms: C_1  and  O_2
    2  A    between atoms: O_2  and  C_3
    3  A    between atoms: C_5  and  C_6
    4  A    between atoms: C_6  and  N_7
    5  A    between atoms: C_8  and  C_10
    6  A    between atoms: C_11  and  C_12
    7  A    between atoms: C_15  and  O_16
    8  A    between atoms: O_16  and  C_17
    9  A    between atoms: C_18  and  O_19
   10  A    between atoms: O_19  and  C_20
   11  A    between atoms: C_21  and  O_22
   12  A    between atoms: O_22  and  C_23
   13  A    between atoms: C_26  and  O_27
                            x       y       z     vdW  Elec       q    Type
                         _______ _______ _______ _____ _____    ______ ____

>  <TORSDO>
F 9

>  <SCORE>
-6.911

>  <RMSD_LB>
2.512

>  <RMSD_UB>
3.975

$$$$
CHEMBL4520001
 OpenBabel10172500443D

 29 30  0  0  0  0  0  0  0  0999 V2000
  143.6610  138.9980  151.9460 N   0  0  0  0  0  0  0  0  0  0  0  0
  142.8930  138.0270  151.3510 C   0  0  0  0  0  0  0  0  0  0  0  0
  143.1230  137.5540  150.2420 O   0  0  0  0  0  0  0  0  0  0  0  0
  143.4130  139.3170  152.8440 H   0  0  0  0  0  0  0  0  0  0  0  0
  141.7410  137.5870  152.1830 C   0  0  0  0  0  3  0  0  0  0  0  0
  140.7600  138.4640  152.4640 C   0  0  0  0  0  3  0  0  0  0  0  0
  139.5450  138.1000  153.2030 C   0  0  0  0  0  0  0  0  0  0  0  0
  139.5640  138.4420  154.5710 C   0  0  0  0  0  3  0  0  0  0  0  0
  138.4630  138.1960  155.3960 C   0  0  0  0  0  3  0  0  0  0  0  0
  137.3040  137.6020  154.8910 C   0  0  0  0  0  0  0  0  0  0  0  0
  137.2650  137.2420  153.5250 C   0  0  0  0  0  0  0  0  0  0  0  0
  138.3940  137.4850  152.6800 C   0  0  0  0  0  0  0  0  0  0  0  0
  136.2000  137.3630  155.6640 O   0  0  0  0  0  0  0  0  0  0  0  0
  136.2430  136.3380  156.6460 C   0  0  0  0  0  1  0  0  0  0  0  0
  136.2060  136.6460  152.8690 O   0  0  0  0  0  0  0  0  0  0  0  0
  135.9170  135.2740  153.0840 C   0  0  0  0  0  1  0  0  0  0  0  0
  138.1910  137.1640  151.3560 O   0  0  0  0  0  0  0  0  0  0  0  0
  138.0960  138.2050  150.3960 C   0  0  0  0  0  1  0  0  0  0  0  0
  144.8220  139.5660  151.2940 C   0  0  0  0  0  2  0  0  0  0  0  0
  147.3750  140.0540  154.1040 C   0  0  0  0  0  0  0  0  0  0  0  0
  146.4760  139.4570  153.2100 C   0  0  0  0  0  3  0  0  0  0  0  0
  145.7710  140.2270  152.2660 C   0  0  0  0  0  0  0  0  0  0  0  0
  145.9730  141.6130  152.2380 C   0  0  0  0  0  3  0  0  0  0  0  0
  146.8660  142.2200  153.1260 C   0  0  0  0  0  3  0  0  0  0  0  0
  147.5600  141.4410  154.0510 C   0  0  0  0  0  0  0  0  0  0  0  0
  147.6830  138.0680  155.3860 C   0  0  0  0  0  1  0  0  0  0  0  0
  148.1130  139.3790  155.0430 O   0  0  0  0  0  0  0  0  0  0  0  0
  148.4350  142.0380  154.9200 O   0  0  0  0  0  0  0  0  0  0  0  0
  149.0670  142.6510  154.6000 H   0  0  0  0  0  0  0  0  0  0  0  0
  1  4  1  0  0  0  0
  2  1  1  0  0  0  0
  2  5  1  0  0  0  0
  3  2  2  0  0  0  0
  5  6  2  0  0  0  0
  6  7  1  0  0  0  0
  7  8  1  0  0  0  0
  8  9  2  0  0  0  0
 10  9  1  0  0  0  0
 10 13  1  0  0  0  0
 11 10  2  0  0  0  0
 12  7  2  0  0  0  0
 12 11  1  0  0  0  0
 13 14  1  0  0  0  0
 15 16  1  0  0  0  0
 15 11  1  0  0  0  0
 17 12  1  0  0  0  0
 18 17  1  0  0  0  0
 19  1  1  0  0  0  0
 19 22  1  0  0  0  0
 20 27  1  0  0  0  0
 21 20  2  0  0  0  0
 22 21  1  0  0  0  0
 23 22  2  0  0  0  0
 23 24  1  0  0  0  0
 24 25  2  0  0  0  0
 25 20  1  0  0  0  0
 25 28  1  0  0  0  0
 27 26  1  0  0  0  0
 29 28  1  0  0  0  0
M  END
>  <MODEL>
5

>  <REMARK>
 VINA RESULT:    -6.892      1.659      2.556
 INTER + INTRA:         -11.041
 INTER:                 -10.503
 INTRA:                  -0.538
 UNBOUND:                -0.725
  Name = CHEMBL4520001
  13 active torsions:
  status: ('A' for Active; 'I' for Inactive)
    1  A    between atoms: C_1  and  O_2
    2  A    between atoms: O_2  and  C_3
    3  A    between atoms: C_5  and  C_6
    4  A    between atoms: C_6  and  N_7
    5  A    between atoms: C_8  and  C_10
    6  A    between atoms: C_11  and  C_12
    7  A    between atoms: C_15  and  O_16
    8  A    between atoms: O_16  and  C_17
    9  A    between atoms: C_18  and  O_19
   10  A    between atoms: O_19  and  C_20
   11  A    between atoms: C_21  and  O_22
   12  A    between atoms: O_22  and  C_23
   13  A    between atoms: C_26  and  O_27
                            x       y       z     vdW  Elec       q    Type
                         _______ _______ _______ _____ _____    ______ ____

>  <TORSDO>
F 9

>  <SCORE>
-6.892

>  <RMSD_LB>
1.659

>  <RMSD_UB>
2.556

$$$$
CHEMBL4520001
 OpenBabel10172500443D

 29 30  0  0  0  0  0  0  0  0999 V2000
  137.2070  137.7120  149.2670 N   0  0  0  0  0  0  0  0  0  0  0  0
  137.6900  138.9800  149.4800 C   0  0  0  0  0  0  0  0  0  0  0  0
  137.1780  139.9960  149.0200 O   0  0  0  0  0  0  0  0  0  0  0  0
  137.6720  136.9490  149.6810 H   0  0  0  0  0  0  0  0  0  0  0  0
  138.9060  139.0150  150.3360 C   0  0  0  0  0  3  0  0  0  0  0  0
  139.1000  138.0420  151.2450 C   0  0  0  0  0  3  0  0  0  0  0  0
  140.3080  137.9450  152.0720 C   0  0  0  0  0  0  0  0  0  0  0  0
  141.4180  137.3620  151.4280 C   0  0  0  0  0  3  0  0  0  0  0  0
  142.6510  137.2390  152.0730 C   0  0  0  0  0  3  0  0  0  0  0  0
  142.8260  137.6910  153.3830 C   0  0  0  0  0  0  0  0  0  0  0  0
  141.7260  138.2720  154.0540 C   0  0  0  0  0  0  0  0  0  0  0  0
  140.4590  138.3910  153.3970 C   0  0  0  0  0  0  0  0  0  0  0  0
  144.0230  137.6040  154.0410 O   0  0  0  0  0  0  0  0  0  0  0  0
  145.0980  136.8930  153.4450 C   0  0  0  0  0  1  0  0  0  0  0  0
  141.7240  138.7630  155.3430 O   0  0  0  0  0  0  0  0  0  0  0  0
  142.6100  139.8110  155.7070 C   0  0  0  0  0  1  0  0  0  0  0  0
  139.5000  139.0500  154.1330 O   0  0  0  0  0  0  0  0  0  0  0  0
  138.4420  138.3060  154.7180 C   0  0  0  0  0  1  0  0  0  0  0  0
  136.0370  137.4630  148.4510 C   0  0  0  0  0  2  0  0  0  0  0  0
  134.4180  134.9100  150.8000 C   0  0  0  0  0  0  0  0  0  0  0  0
  135.3760  135.6690  150.1140 C   0  0  0  0  0  3  0  0  0  0  0  0
  134.9940  136.6360  149.1650 C   0  0  0  0  0  0  0  0  0  0  0  0
  133.6300  136.8240  148.9040 C   0  0  0  0  0  3  0  0  0  0  0  0
  132.6660  136.0720  149.5800 C   0  0  0  0  0  3  0  0  0  0  0  0
  133.0620  135.1210  150.5210 C   0  0  0  0  0  0  0  0  0  0  0  0
  135.6790  134.2910  152.7250 C   0  0  0  0  0  1  0  0  0  0  0  0
  134.7010  133.9600  151.7480 O   0  0  0  0  0  0  0  0  0  0  0  0
  132.1150  134.3850  151.1820 O   0  0  0  0  0  0  0  0  0  0  0  0
  132.2200  133.4580  151.2690 H   0  0  0  0  0  0  0  0  0  0  0  0
  1  2  1  0  0  0  0
  1  4  1  0  0  0  0
  2  5  1  0  0  0  0
  3  2  2  0  0  0  0
  5  6  2  0  0  0  0
  6  7  1  0  0  0  0
  7 12  1  0  0  0  0
  8  7  2  0  0  0  0
  8  9  1  0  0  0  0
  9 10  2  0  0  0  0
 10 13  1  0  0  0  0
 10 11  1  0  0  0  0
 11 15  1  0  0  0  0
 12 11  2  0  0  0  0
 12 17  1  0  0  0  0
 14 13  1  0  0  0  0
 15 16  1  0  0  0  0
 17 18  1  0  0  0  0
 19 22  1  0  0  0  0
 19  1  1  0  0  0  0
 20 27  1  0  0  0  0
 21 20  2  0  0  0  0
 22 21  1  0  0  0  0
 23 22  2  0  0  0  0
 23 24  1  0  0  0  0
 24 25  2  0  0  0  0
 25 20  1  0  0  0  0
 25 28  1  0  0  0  0
 27 26  1  0  0  0  0
 28 29  1  0  0  0  0
M  END
>  <MODEL>
6

>  <REMARK>
 VINA RESULT:    -6.783      3.506      8.981
 INTER + INTRA:         -10.878
 INTER:                 -10.221
 INTRA:                  -0.656
 UNBOUND:                -0.725
  Name = CHEMBL4520001
  13 active torsions:
  status: ('A' for Active; 'I' for Inactive)
    1  A    between atoms: C_1  and  O_2
    2  A    between atoms: O_2  and  C_3
    3  A    between atoms: C_5  and  C_6
    4  A    between atoms: C_6  and  N_7
    5  A    between atoms: C_8  and  C_10
    6  A    between atoms: C_11  and  C_12
    7  A    between atoms: C_15  and  O_16
    8  A    between atoms: O_16  and  C_17
    9  A    between atoms: C_18  and  O_19
   10  A    between atoms: O_19  and  C_20
   11  A    between atoms: C_21  and  O_22
   12  A    between atoms: O_22  and  C_23
   13  A    between atoms: C_26  and  O_27
                            x       y       z     vdW  Elec       q    Type
                         _______ _______ _______ _____ _____    ______ ____

>  <TORSDO>
F 9

>  <SCORE>
-6.783

>  <RMSD_LB>
3.506

>  <RMSD_UB>
8.981

$$$$
CHEMBL4520001
 OpenBabel10172500443D

 29 30  0  0  0  0  0  0  0  0999 V2000
  143.2450  139.4970  151.1460 N   0  0  0  0  0  0  0  0  0  0  0  0
  142.1310  139.7530  150.3830 C   0  0  0  0  0  0  0  0  0  0  0  0
  142.1650  140.2820  149.2760 O   0  0  0  0  0  0  0  0  0  0  0  0
  143.1330  139.0590  152.0200 H   0  0  0  0  0  0  0  0  0  0  0  0
  140.8610  139.3210  151.0240 C   0  0  0  0  0  3  0  0  0  0  0  0
  140.3310  138.1280  150.6980 C   0  0  0  0  0  3  0  0  0  0  0  0
  139.1300  137.5800  151.3390 C   0  0  0  0  0  0  0  0  0  0  0  0
  138.9890  137.9090  152.7030 C   0  0  0  0  0  3  0  0  0  0  0  0
  137.8770  137.4940  153.4390 C   0  0  0  0  0  3  0  0  0  0  0  0
  136.8630  136.7370  152.8460 C   0  0  0  0  0  0  0  0  0  0  0  0
  136.9860  136.3870  151.4820 C   0  0  0  0  0  0  0  0  0  0  0  0
  138.1290  136.8030  150.7290 C   0  0  0  0  0  0  0  0  0  0  0  0
  135.7500  136.3280  153.5300 O   0  0  0  0  0  0  0  0  0  0  0  0
  135.8780  135.8850  154.8730 C   0  0  0  0  0  1  0  0  0  0  0  0
  136.0840  135.6440  150.7470 O   0  0  0  0  0  0  0  0  0  0  0  0
  134.8150  136.1870  150.4190 C   0  0  0  0  0  1  0  0  0  0  0  0
  138.0820  136.4660  149.3940 O   0  0  0  0  0  0  0  0  0  0  0  0
  137.7270  137.4550  148.4410 C   0  0  0  0  0  1  0  0  0  0  0  0
  144.5770  139.8510  150.7040 C   0  0  0  0  0  2  0  0  0  0  0  0
  146.9100  140.0980  153.7280 C   0  0  0  0  0  0  0  0  0  0  0  0
  146.1020  139.5780  152.7080 C   0  0  0  0  0  3  0  0  0  0  0  0
  145.4250  140.4270  151.8120 C   0  0  0  0  0  0  0  0  0  0  0  0
  145.5610  141.8130  151.9640 C   0  0  0  0  0  3  0  0  0  0  0  0
  146.3610  142.3440  152.9790 C   0  0  0  0  0  3  0  0  0  0  0  0
  147.0290  141.4880  153.8540 C   0  0  0  0  0  0  0  0  0  0  0  0
  146.8730  138.7030  155.6610 C   0  0  0  0  0  1  0  0  0  0  0  0
  147.6150  139.3440  154.6320 O   0  0  0  0  0  0  0  0  0  0  0  0
  147.8130  142.0090  154.8480 O   0  0  0  0  0  0  0  0  0  0  0  0
  148.0230  141.4910  155.6000 H   0  0  0  0  0  0  0  0  0  0  0  0
  1  4  1  0  0  0  0
  2  5  1  0  0  0  0
  2  1  1  0  0  0  0
  3  2  2  0  0  0  0
  6  5  2  0  0  0  0
  6  7  1  0  0  0  0
  7  8  1  0  0  0  0
  8  9  2  0  0  0  0
 10  9  1  0  0  0  0
 10 13  1  0  0  0  0
 11 10  2  0  0  0  0
 12  7  2  0  0  0  0
 12 11  1  0  0  0  0
 13 14  1  0  0  0  0
 15 11  1  0  0  0  0
 16 15  1  0  0  0  0
 17 12  1  0  0  0  0
 18 17  1  0  0  0  0
 19  1  1  0  0  0  0
 19 22  1  0  0  0  0
 20 25  1  0  0  0  0
 20 27  1  0  0  0  0
 21 20  2  0  0  0  0
 22 23  2  0  0  0  0
 22 21  1  0  0  0  0
 23 24  1  0  0  0  0
 24 25  2  0  0  0  0
 25 28  1  0  0  0  0
 27 26  1  0  0  0  0
 28 29  1  0  0  0  0
M  END
>  <MODEL>
7

>  <REMARK>
 VINA RESULT:    -6.637      1.893      3.152
 INTER + INTRA:         -10.659
 INTER:                 -10.179
 INTRA:                  -0.480
 UNBOUND:                -0.725
  Name = CHEMBL4520001
  13 active torsions:
  status: ('A' for Active; 'I' for Inactive)
    1  A    between atoms: C_1  and  O_2
    2  A    between atoms: O_2  and  C_3
    3  A    between atoms: C_5  and  C_6
    4  A    between atoms: C_6  and  N_7
    5  A    between atoms: C_8  and  C_10
    6  A    between atoms: C_11  and  C_12
    7  A    between atoms: C_15  and  O_16
    8  A    between atoms: O_16  and  C_17
    9  A    between atoms: C_18  and  O_19
   10  A    between atoms: O_19  and  C_20
   11  A    between atoms: C_21  and  O_22
   12  A    between atoms: O_22  and  C_23
   13  A    between atoms: C_26  and  O_27
                            x       y       z     vdW  Elec       q    Type
                         _______ _______ _______ _____ _____    ______ ____

>  <TORSDO>
F 9

>  <SCORE>
-6.637

>  <RMSD_LB>
1.893

>  <RMSD_UB>
3.152

$$$$
CHEMBL4520001
 OpenBabel10172500443D

 29 30  0  0  0  0  0  0  0  0999 V2000
  138.4210  136.7730  149.7150 N   0  0  0  0  0  0  0  0  0  0  0  0
  138.5820  138.0420  150.2150 C   0  0  0  0  0  0  0  0  0  0  0  0
  137.8060  138.9680  149.9990 O   0  0  0  0  0  0  0  0  0  0  0  0
  139.0850  136.0830  149.9440 H   0  0  0  0  0  0  0  0  0  0  0  0
  139.7960  138.1980  151.0600 C   0  0  0  0  0  3  0  0  0  0  0  0
  140.7690  137.2700  150.9910 C   0  0  0  0  0  3  0  0  0  0  0  0
  142.0380  137.3820  151.7200 C   0  0  0  0  0  0  0  0  0  0  0  0
  141.9050  137.6670  153.0940 C   0  0  0  0  0  3  0  0  0  0  0  0
  143.0220  137.7630  153.9270 C   0  0  0  0  0  3  0  0  0  0  0  0
  144.3120  137.5790  153.4250 C   0  0  0  0  0  0  0  0  0  0  0  0
  144.4720  137.3020  152.0490 C   0  0  0  0  0  0  0  0  0  0  0  0
  143.3300  137.2120  151.1910 C   0  0  0  0  0  0  0  0  0  0  0  0
  145.4280  137.6480  154.2140 O   0  0  0  0  0  0  0  0  0  0  0  0
  145.7750  138.8800  154.8300 C   0  0  0  0  0  1  0  0  0  0  0  0
  145.6690  137.0990  151.3920 O   0  0  0  0  0  0  0  0  0  0  0  0
  146.4960  138.2040  151.0600 C   0  0  0  0  0  1  0  0  0  0  0  0
  143.6220  136.8540  149.8940 O   0  0  0  0  0  0  0  0  0  0  0  0
  143.4700  135.5010  149.4950 C   0  0  0  0  0  1  0  0  0  0  0  0
  137.3070  136.4200  148.8610 C   0  0  0  0  0  2  0  0  0  0  0  0
  134.0530  134.5520  149.6210 C   0  0  0  0  0  0  0  0  0  0  0  0
  135.0140  135.3480  148.9830 C   0  0  0  0  0  3  0  0  0  0  0  0
  136.2730  135.5780  149.5700 C   0  0  0  0  0  0  0  0  0  0  0  0
  136.5510  135.0050  150.8180 C   0  0  0  0  0  3  0  0  0  0  0  0
  135.5990  134.2110  151.4640 C   0  0  0  0  0  3  0  0  0  0  0  0
  134.3590  133.9890  150.8660 C   0  0  0  0  0  0  0  0  0  0  0  0
  132.7600  133.5180  147.9060 C   0  0  0  0  0  1  0  0  0  0  0  0
  132.8100  134.2650  149.1140 O   0  0  0  0  0  0  0  0  0  0  0  0
  133.4290  133.2110  151.5000 O   0  0  0  0  0  0  0  0  0  0  0  0
  133.7030  132.5640  152.1200 H   0  0  0  0  0  0  0  0  0  0  0  0
  1  4  1  0  0  0  0
  1  2  1  0  0  0  0
  2  5  1  0  0  0  0
  3  2  2  0  0  0  0
  6  5  2  0  0  0  0
  6  7  1  0  0  0  0
  7  8  1  0  0  0  0
  8  9  2  0  0  0  0
 10  9  1  0  0  0  0
 10 13  1  0  0  0  0
 11 10  2  0  0  0  0
 12  7  2  0  0  0  0
 12 11  1  0  0  0  0
 13 14  1  0  0  0  0
 15 11  1  0  0  0  0
 16 15  1  0  0  0  0
 17 12  1  0  0  0  0
 18 17  1  0  0  0  0
 19 22  1  0  0  0  0
 19  1  1  0  0  0  0
 20 25  1  0  0  0  0
 21 22  1  0  0  0  0
 21 20  2  0  0  0  0
 22 23  2  0  0  0  0
 23 24  1  0  0  0  0
 25 24  2  0  0  0  0
 25 28  1  0  0  0  0
 26 27  1  0  0  0  0
 27 20  1  0  0  0  0
 28 29  1  0  0  0  0
M  END
>  <MODEL>
8

>  <REMARK>
 VINA RESULT:    -6.555      3.969      9.822
 INTER + INTRA:         -10.537
 INTER:                  -9.813
 INTRA:                  -0.725
 UNBOUND:                -0.725
  Name = CHEMBL4520001
  13 active torsions:
  status: ('A' for Active; 'I' for Inactive)
    1  A    between atoms: C_1  and  O_2
    2  A    between atoms: O_2  and  C_3
    3  A    between atoms: C_5  and  C_6
    4  A    between atoms: C_6  and  N_7
    5  A    between atoms: C_8  and  C_10
    6  A    between atoms: C_11  and  C_12
    7  A    between atoms: C_15  and  O_16
    8  A    between atoms: O_16  and  C_17
    9  A    between atoms: C_18  and  O_19
   10  A    between atoms: O_19  and  C_20
   11  A    between atoms: C_21  and  O_22
   12  A    between atoms: O_22  and  C_23
   13  A    between atoms: C_26  and  O_27
                            x       y       z     vdW  Elec       q    Type
                         _______ _______ _______ _____ _____    ______ ____

>  <TORSDO>
F 9

>  <SCORE>
-6.555

>  <RMSD_LB>
3.969

>  <RMSD_UB>
9.822

$$$$
CHEMBL4520001
 OpenBabel10172500443D

 29 30  0  0  0  0  0  0  0  0999 V2000
  137.7280  136.3420  149.8650 N   0  0  0  0  0  0  0  0  0  0  0  0
  138.5260  137.4290  150.1230 C   0  0  0  0  0  0  0  0  0  0  0  0
  138.0970  138.5380  150.4290 O   0  0  0  0  0  0  0  0  0  0  0  0
  138.1520  135.4840  149.6340 H   0  0  0  0  0  0  0  0  0  0  0  0
  139.9800  137.1400  150.0010 C   0  0  0  0  0  3  0  0  0  0  0  0
  140.7930  137.4060  151.0400 C   0  0  0  0  0  3  0  0  0  0  0  0
  142.2230  137.0760  151.0450 C   0  0  0  0  0  0  0  0  0  0  0  0
  142.6500  136.2900  149.9560 C   0  0  0  0  0  3  0  0  0  0  0  0
  143.9900  135.9290  149.8020 C   0  0  0  0  0  3  0  0  0  0  0  0
  144.9560  136.3380  150.7250 C   0  0  0  0  0  0  0  0  0  0  0  0
  144.5520  137.1200  151.8300 C   0  0  0  0  0  0  0  0  0  0  0  0
  143.1770  137.4830  151.9950 C   0  0  0  0  0  0  0  0  0  0  0  0
  146.2810  136.0190  150.5970 O   0  0  0  0  0  0  0  0  0  0  0  0
  147.1330  136.8640  149.8360 C   0  0  0  0  0  1  0  0  0  0  0  0
  145.3710  137.6010  152.8310 O   0  0  0  0  0  0  0  0  0  0  0  0
  145.8740  136.7220  153.8250 C   0  0  0  0  0  1  0  0  0  0  0  0
  142.9360  138.3140  153.0660 O   0  0  0  0  0  0  0  0  0  0  0  0
  142.2620  137.8010  154.2050 C   0  0  0  0  0  1  0  0  0  0  0  0
  136.2830  136.4190  149.9190 C   0  0  0  0  0  2  0  0  0  0  0  0
  135.5210  135.0290  153.4040 C   0  0  0  0  0  0  0  0  0  0  0  0
  136.0730  135.7910  152.3640 C   0  0  0  0  0  3  0  0  0  0  0  0
  135.6960  135.5760  151.0260 C   0  0  0  0  0  0  0  0  0  0  0  0
  134.7600  134.5720  150.7410 C   0  0  0  0  0  3  0  0  0  0  0  0
  134.2030  133.8060  151.7680 C   0  0  0  0  0  3  0  0  0  0  0  0
  134.5850  134.0360  153.0900 C   0  0  0  0  0  0  0  0  0  0  0  0
  136.8340  136.1210  155.0660 C   0  0  0  0  0  1  0  0  0  0  0  0
  135.8200  135.1820  154.7340 O   0  0  0  0  0  0  0  0  0  0  0  0
  134.0390  133.2830  154.0950 O   0  0  0  0  0  0  0  0  0  0  0  0
  133.4450  133.6760  154.7050 H   0  0  0  0  0  0  0  0  0  0  0  0
  1 19  1  0  0  0  0
  1  2  1  0  0  0  0
  2  3  2  0  0  0  0
  4  1  1  0  0  0  0
  5  2  1  0  0  0  0
  5  6  2  0  0  0  0
  6  7  1  0  0  0  0
  7 12  1  0  0  0  0
  8  7  2  0  0  0  0
  9  8  1  0  0  0  0
  9 10  2  0  0  0  0
 10 11  1  0  0  0  0
 11 12  2  0  0  0  0
 11 15  1  0  0  0  0
 12 17  1  0  0  0  0
 13 10  1  0  0  0  0
 14 13  1  0  0  0  0
 15 16  1  0  0  0  0
 17 18  1  0  0  0  0
 19 22  1  0  0  0  0
 20 27  1  0  0  0  0
 21 20  2  0  0  0  0
 22 21  1  0  0  0  0
 23 22  2  0  0  0  0
 23 24  1  0  0  0  0
 24 25  2  0  0  0  0
 25 20  1  0  0  0  0
 25 28  1  0  0  0  0
 27 26  1  0  0  0  0
 28 29  1  0  0  0  0
M  END
>  <MODEL>
9

>  <REMARK>
 VINA RESULT:    -6.471      3.424      9.242
 INTER + INTRA:         -10.410
 INTER:                  -9.695
 INTRA:                  -0.715
 UNBOUND:                -0.725
  Name = CHEMBL4520001
  13 active torsions:
  status: ('A' for Active; 'I' for Inactive)
    1  A    between atoms: C_1  and  O_2
    2  A    between atoms: O_2  and  C_3
    3  A    between atoms: C_5  and  C_6
    4  A    between atoms: C_6  and  N_7
    5  A    between atoms: C_8  and  C_10
    6  A    between atoms: C_11  and  C_12
    7  A    between atoms: C_15  and  O_16
    8  A    between atoms: O_16  and  C_17
    9  A    between atoms: C_18  and  O_19
   10  A    between atoms: O_19  and  C_20
   11  A    between atoms: C_21  and  O_22
   12  A    between atoms: O_22  and  C_23
   13  A    between atoms: C_26  and  O_27
                            x       y       z     vdW  Elec       q    Type
                         _______ _______ _______ _____ _____    ______ ____

>  <TORSDO>
F 9

>  <SCORE>
-6.471

>  <RMSD_LB>
3.424

>  <RMSD_UB>
9.242

$$$$
