CHEMBL1290019
 OpenBabel10172500413D

 25 26  0  0  0  0  0  0  0  0999 V2000
  135.8190  135.4640  152.5900 C   0  0  0  0  0  0  0  0  0  0  0  0
  135.8410  136.5910  152.0820 O   0  0  0  0  0  0  0  0  0  0  0  0
  135.7210  135.3700  154.0760 C   0  0  0  0  0  0  0  0  0  0  0  0
  136.8170  135.8600  154.8140 C   0  0  0  0  0  3  0  0  0  0  0  0
  136.8030  135.8980  156.2180 C   0  0  0  0  0  3  0  0  0  0  0  0
  135.6820  135.4540  156.9100 C   0  0  0  0  0  0  0  0  0  0  0  0
  134.6050  134.9540  156.1760 C   0  0  0  0  0  0  0  0  0  0  0  0
  134.6120  134.9060  154.7790 C   0  0  0  0  0  0  0  0  0  0  0  0
  135.5070  135.4610  158.2690 O   0  0  0  0  0  0  0  0  0  0  0  0
  136.4330  134.6940  159.0320 C   0  0  0  0  0  1  0  0  0  0  0  0
  133.4700  134.5160  156.8200 O   0  0  0  0  0  0  0  0  0  0  0  0
  132.6260  134.6990  156.4590 H   0  0  0  0  0  0  0  0  0  0  0  0
  133.4820  134.4390  154.1700 O   0  0  0  0  0  0  0  0  0  0  0  0
  132.7530  134.1590  154.6880 H   0  0  0  0  0  0  0  0  0  0  0  0
  135.9580  134.2310  151.7210 C   0  0  0  0  0  2  0  0  0  0  0  0
  134.2800  134.1550  148.2900 C   0  0  0  0  0  0  0  0  0  0  0  0
  135.2360  134.3190  149.2990 C   0  0  0  0  0  3  0  0  0  0  0  0
  134.9000  134.1320  150.6500 C   0  0  0  0  0  0  0  0  0  0  0  0
  133.5790  133.8040  150.9860 C   0  0  0  0  0  3  0  0  0  0  0  0
  132.6140  133.6530  149.9930 C   0  0  0  0  0  3  0  0  0  0  0  0
  132.9680  133.8210  148.6550 C   0  0  0  0  0  0  0  0  0  0  0  0
  135.5830  133.5040  146.4040 C   0  0  0  0  0  1  0  0  0  0  0  0
  134.5270  134.2810  146.9480 O   0  0  0  0  0  0  0  0  0  0  0  0
  132.0240  133.6520  147.6770 O   0  0  0  0  0  0  0  0  0  0  0  0
  131.6600  132.8040  147.5190 H   0  0  0  0  0  0  0  0  0  0  0  0
  1  3  1  0  0  0  0
  2  1  2  0  0  0  0
  3  8  2  0  0  0  0
  3  4  1  0  0  0  0
  4  5  2  0  0  0  0
  5  6  1  0  0  0  0
  6  9  1  0  0  0  0
  7 11  1  0  0  0  0
  7  6  2  0  0  0  0
  8  7  1  0  0  0  0
  9 10  1  0  0  0  0
 12 11  1  0  0  0  0
 13 14  1  0  0  0  0
 13  8  1  0  0  0  0
 15  1  1  0  0  0  0
 16 21  2  0  0  0  0
 16 17  1  0  0  0  0
 17 18  2  0  0  0  0
 18 19  1  0  0  0  0
 18 15  1  0  0  0  0
 20 19  2  0  0  0  0
 21 20  1  0  0  0  0
 22 23  1  0  0  0  0
 23 16  1  0  0  0  0
 24 21  1  0  0  0  0
 25 24  1  0  0  0  0
M  END
>  <MODEL>
1

>  <REMARK>
 VINA RESULT:    -7.489      0.000      0.000
 INTER + INTRA:         -11.005
 INTER:                 -10.394
 INTRA:                  -0.611
 UNBOUND:                -0.670
  Name = CHEMBL1290019
  10 active torsions:
  status: ('A' for Active; 'I' for Inactive)
    1  A    between atoms: C_1  and  O_2
    2  A    between atoms: O_2  and  C_3
    3  A    between atoms: C_5  and  C_6
    4  A    between atoms: C_6  and  C_7
    5  A    between atoms: C_7  and  C_9
    6  A    between atoms: C_12  and  O_13
    7  A    between atoms: O_13  and  C_14
    8  A    between atoms: C_15  and  O_16
    9  A    between atoms: C_17  and  O_18
   10  A    between atoms: C_21  and  O_22
                            x       y       z     vdW  Elec       q    Type
                         _______ _______ _______ _____ _____    ______ ____

>  <TORSDO>
F 8

>  <SCORE>
-7.489

>  <RMSD_LB>
0.000

>  <RMSD_UB>
0.000

$$$$
CHEMBL1290019
 OpenBabel10172500413D

 25 26  0  0  0  0  0  0  0  0999 V2000
  137.8280  138.0380  155.5170 C   0  0  0  0  0  0  0  0  0  0  0  0
  136.9760  138.9190  155.6820 O   0  0  0  0  0  0  0  0  0  0  0  0
  138.6430  138.0820  154.2680 C   0  0  0  0  0  0  0  0  0  0  0  0
  138.0320  137.5920  153.0960 C   0  0  0  0  0  3  0  0  0  0  0  0
  138.6720  137.6570  151.8480 C   0  0  0  0  0  3  0  0  0  0  0  0
  139.9370  138.2260  151.7490 C   0  0  0  0  0  0  0  0  0  0  0  0
  140.5460  138.6950  152.9140 C   0  0  0  0  0  0  0  0  0  0  0  0
  139.9190  138.6290  154.1620 C   0  0  0  0  0  0  0  0  0  0  0  0
  140.6690  138.3910  150.6030 O   0  0  0  0  0  0  0  0  0  0  0  0
  140.7150  137.2800  149.7130 C   0  0  0  0  0  1  0  0  0  0  0  0
  141.7920  139.2780  152.8600 O   0  0  0  0  0  0  0  0  0  0  0  0
  141.9200  140.0670  152.3720 H   0  0  0  0  0  0  0  0  0  0  0  0
  140.5950  139.1630  155.2230 O   0  0  0  0  0  0  0  0  0  0  0  0
  140.2290  139.8830  155.6970 H   0  0  0  0  0  0  0  0  0  0  0  0
  137.9760  136.9190  156.5260 C   0  0  0  0  0  2  0  0  0  0  0  0
  134.7780  134.9210  155.9170 C   0  0  0  0  0  0  0  0  0  0  0  0
  135.9280  135.6870  155.6990 C   0  0  0  0  0  3  0  0  0  0  0  0
  136.6930  136.1640  156.7760 C   0  0  0  0  0  0  0  0  0  0  0  0
  136.2750  135.8890  158.0860 C   0  0  0  0  0  3  0  0  0  0  0  0
  135.1230  135.1420  158.3170 C   0  0  0  0  0  3  0  0  0  0  0  0
  134.3860  134.6570  157.2370 C   0  0  0  0  0  0  0  0  0  0  0  0
  133.8590  135.1300  153.7280 C   0  0  0  0  0  1  0  0  0  0  0  0
  133.9930  134.3850  154.9290 O   0  0  0  0  0  0  0  0  0  0  0  0
  133.2650  133.9030  157.4640 O   0  0  0  0  0  0  0  0  0  0  0  0
  133.3280  132.9700  157.5090 H   0  0  0  0  0  0  0  0  0  0  0  0
  1  2  2  0  0  0  0
  1 15  1  0  0  0  0
  3  1  1  0  0  0  0
  4  3  2  0  0  0  0
  5  4  1  0  0  0  0
  6  5  2  0  0  0  0
  6  7  1  0  0  0  0
  7  8  2  0  0  0  0
  8  3  1  0  0  0  0
  8 13  1  0  0  0  0
  9  6  1  0  0  0  0
 10  9  1  0  0  0  0
 11  7  1  0  0  0  0
 12 11  1  0  0  0  0
 13 14  1  0  0  0  0
 15 18  1  0  0  0  0
 16 21  1  0  0  0  0
 17 16  2  0  0  0  0
 17 18  1  0  0  0  0
 18 19  2  0  0  0  0
 19 20  1  0  0  0  0
 21 24  1  0  0  0  0
 21 20  2  0  0  0  0
 22 23  1  0  0  0  0
 23 16  1  0  0  0  0
 24 25  1  0  0  0  0
M  END
>  <MODEL>
2

>  <REMARK>
 VINA RESULT:    -7.373      3.949      7.534
 INTER + INTRA:         -10.844
 INTER:                 -10.115
 INTRA:                  -0.729
 UNBOUND:                -0.670
  Name = CHEMBL1290019
  10 active torsions:
  status: ('A' for Active; 'I' for Inactive)
    1  A    between atoms: C_1  and  O_2
    2  A    between atoms: O_2  and  C_3
    3  A    between atoms: C_5  and  C_6
    4  A    between atoms: C_6  and  C_7
    5  A    between atoms: C_7  and  C_9
    6  A    between atoms: C_12  and  O_13
    7  A    between atoms: O_13  and  C_14
    8  A    between atoms: C_15  and  O_16
    9  A    between atoms: C_17  and  O_18
   10  A    between atoms: C_21  and  O_22
                            x       y       z     vdW  Elec       q    Type
                         _______ _______ _______ _____ _____    ______ ____

>  <TORSDO>
F 8

>  <SCORE>
-7.373

>  <RMSD_LB>
3.949

>  <RMSD_UB>
7.534

$$$$
CHEMBL1290019
 OpenBabel10172500413D

 25 26  0  0  0  0  0  0  0  0999 V2000
  143.6950  138.7950  152.1770 C   0  0  0  0  0  0  0  0  0  0  0  0
  143.5300  139.8420  151.5390 O   0  0  0  0  0  0  0  0  0  0  0  0
  144.8410  138.7330  153.1310 C   0  0  0  0  0  0  0  0  0  0  0  0
  145.2750  137.4480  153.5150 C   0  0  0  0  0  3  0  0  0  0  0  0
  146.3940  137.2650  154.3430 C   0  0  0  0  0  3  0  0  0  0  0  0
  147.1070  138.3700  154.7950 C   0  0  0  0  0  0  0  0  0  0  0  0
  146.6650  139.6410  154.4260 C   0  0  0  0  0  0  0  0  0  0  0  0
  145.5480  139.8340  153.6070 C   0  0  0  0  0  0  0  0  0  0  0  0
  148.2330  138.3490  155.5750 O   0  0  0  0  0  0  0  0  0  0  0  0
  148.4740  137.1540  156.3120 C   0  0  0  0  0  1  0  0  0  0  0  0
  147.3490  140.7620  154.8400 O   0  0  0  0  0  0  0  0  0  0  0  0
  148.2860  140.7610  154.8510 H   0  0  0  0  0  0  0  0  0  0  0  0
  145.2400  141.1230  153.2760 O   0  0  0  0  0  0  0  0  0  0  0  0
  145.7310  141.5670  152.6130 H   0  0  0  0  0  0  0  0  0  0  0  0
  142.7960  137.6010  151.9320 C   0  0  0  0  0  2  0  0  0  0  0  0
  140.0180  138.2160  154.4810 C   0  0  0  0  0  0  0  0  0  0  0  0
  141.2800  138.0000  153.9170 C   0  0  0  0  0  3  0  0  0  0  0  0
  141.4230  137.7510  152.5420 C   0  0  0  0  0  0  0  0  0  0  0  0
  140.2790  137.6900  151.7350 C   0  0  0  0  0  3  0  0  0  0  0  0
  139.0150  137.8880  152.2870 C   0  0  0  0  0  3  0  0  0  0  0  0
  138.8900  138.1550  153.6500 C   0  0  0  0  0  0  0  0  0  0  0  0
  140.0920  137.4880  156.7490 C   0  0  0  0  0  1  0  0  0  0  0  0
  139.7870  138.5010  155.8020 O   0  0  0  0  0  0  0  0  0  0  0  0
  137.6490  138.3710  154.1890 O   0  0  0  0  0  0  0  0  0  0  0  0
  136.9170  138.5310  153.6280 H   0  0  0  0  0  0  0  0  0  0  0  0
  1  3  1  0  0  0  0
  2  1  2  0  0  0  0
  3  4  2  0  0  0  0
  3  8  1  0  0  0  0
  4  5  1  0  0  0  0
  5  6  2  0  0  0  0
  6  9  1  0  0  0  0
  7  6  1  0  0  0  0
  7 11  1  0  0  0  0
  8  7  2  0  0  0  0
  9 10  1  0  0  0  0
 11 12  1  0  0  0  0
 13  8  1  0  0  0  0
 14 13  1  0  0  0  0
 15  1  1  0  0  0  0
 15 18  1  0  0  0  0
 16 23  1  0  0  0  0
 17 16  1  0  0  0  0
 18 17  2  0  0  0  0
 19 20  2  0  0  0  0
 19 18  1  0  0  0  0
 20 21  1  0  0  0  0
 21 24  1  0  0  0  0
 21 16  2  0  0  0  0
 23 22  1  0  0  0  0
 25 24  1  0  0  0  0
M  END
>  <MODEL>
3

>  <REMARK>
 VINA RESULT:    -7.130      8.247     10.595
 INTER + INTRA:         -10.509
 INTER:                  -9.539
 INTRA:                  -0.970
 UNBOUND:                -0.670
  Name = CHEMBL1290019
  10 active torsions:
  status: ('A' for Active; 'I' for Inactive)
    1  A    between atoms: C_1  and  O_2
    2  A    between atoms: O_2  and  C_3
    3  A    between atoms: C_5  and  C_6
    4  A    between atoms: C_6  and  C_7
    5  A    between atoms: C_7  and  C_9
    6  A    between atoms: C_12  and  O_13
    7  A    between atoms: O_13  and  C_14
    8  A    between atoms: C_15  and  O_16
    9  A    between atoms: C_17  and  O_18
   10  A    between atoms: C_21  and  O_22
                            x       y       z     vdW  Elec       q    Type
                         _______ _______ _______ _____ _____    ______ ____

>  <TORSDO>
F 8

>  <SCORE>
-7.130

>  <RMSD_LB>
8.247

>  <RMSD_UB>
10.595

$$$$
CHEMBL1290019
 OpenBabel10172500413D

 25 26  0  0  0  0  0  0  0  0999 V2000
  146.2370  138.6710  154.3700 C   0  0  0  0  0  0  0  0  0  0  0  0
  146.6330  138.5630  155.5370 O   0  0  0  0  0  0  0  0  0  0  0  0
  144.7660  138.6120  154.1240 C   0  0  0  0  0  0  0  0  0  0  0  0
  144.3110  137.6040  153.2510 C   0  0  0  0  0  3  0  0  0  0  0  0
  142.9430  137.4010  153.0090 C   0  0  0  0  0  3  0  0  0  0  0  0
  142.0020  138.2010  153.6470 C   0  0  0  0  0  0  0  0  0  0  0  0
  142.4560  139.2100  154.4980 C   0  0  0  0  0  0  0  0  0  0  0  0
  143.8170  139.4230  154.7410 C   0  0  0  0  0  0  0  0  0  0  0  0
  140.6400  138.1020  153.5390 O   0  0  0  0  0  0  0  0  0  0  0  0
  140.0700  138.5060  152.2970 C   0  0  0  0  0  1  0  0  0  0  0  0
  141.5590  140.0160  155.1600 O   0  0  0  0  0  0  0  0  0  0  0  0
  141.5690  140.9420  155.0210 H   0  0  0  0  0  0  0  0  0  0  0  0
  144.1390  140.4100  155.6300 O   0  0  0  0  0  0  0  0  0  0  0  0
  144.2130  140.2130  156.5420 H   0  0  0  0  0  0  0  0  0  0  0  0
  147.2310  138.7900  153.2340 C   0  0  0  0  0  2  0  0  0  0  0  0
  146.4730  140.7970  150.0730 C   0  0  0  0  0  0  0  0  0  0  0  0
  146.8090  139.7420  150.9300 C   0  0  0  0  0  3  0  0  0  0  0  0
  146.9490  139.9510  152.3110 C   0  0  0  0  0  0  0  0  0  0  0  0
  146.7780  141.2420  152.8280 C   0  0  0  0  0  3  0  0  0  0  0  0
  146.4590  142.3040  151.9850 C   0  0  0  0  0  3  0  0  0  0  0  0
  146.3010  142.0770  150.6180 C   0  0  0  0  0  0  0  0  0  0  0  0
  145.7670  139.4440  148.2420 C   0  0  0  0  0  1  0  0  0  0  0  0
  146.2790  140.6790  148.7210 O   0  0  0  0  0  0  0  0  0  0  0  0
  145.9670  143.1170  149.7920 O   0  0  0  0  0  0  0  0  0  0  0  0
  146.4670  143.2790  149.0160 H   0  0  0  0  0  0  0  0  0  0  0  0
  1  2  2  0  0  0  0
  3  1  1  0  0  0  0
  3  8  1  0  0  0  0
  4  3  2  0  0  0  0
  5  4  1  0  0  0  0
  5  6  2  0  0  0  0
  6  7  1  0  0  0  0
  7  8  2  0  0  0  0
  7 11  1  0  0  0  0
  8 13  1  0  0  0  0
  9  6  1  0  0  0  0
 10  9  1  0  0  0  0
 12 11  1  0  0  0  0
 13 14  1  0  0  0  0
 15  1  1  0  0  0  0
 16 21  2  0  0  0  0
 16 17  1  0  0  0  0
 17 18  2  0  0  0  0
 18 19  1  0  0  0  0
 18 15  1  0  0  0  0
 20 19  2  0  0  0  0
 21 20  1  0  0  0  0
 22 23  1  0  0  0  0
 23 16  1  0  0  0  0
 24 21  1  0  0  0  0
 25 24  1  0  0  0  0
M  END
>  <MODEL>
4

>  <REMARK>
 VINA RESULT:    -7.048      9.775     11.953
 INTER + INTRA:         -10.396
 INTER:                  -9.211
 INTRA:                  -1.185
 UNBOUND:                -0.670
  Name = CHEMBL1290019
  10 active torsions:
  status: ('A' for Active; 'I' for Inactive)
    1  A    between atoms: C_1  and  O_2
    2  A    between atoms: O_2  and  C_3
    3  A    between atoms: C_5  and  C_6
    4  A    between atoms: C_6  and  C_7
    5  A    between atoms: C_7  and  C_9
    6  A    between atoms: C_12  and  O_13
    7  A    between atoms: O_13  and  C_14
    8  A    between atoms: C_15  and  O_16
    9  A    between atoms: C_17  and  O_18
   10  A    between atoms: C_21  and  O_22
                            x       y       z     vdW  Elec       q    Type
                         _______ _______ _______ _____ _____    ______ ____

>  <TORSDO>
F 8

>  <SCORE>
-7.048

>  <RMSD_LB>
9.775

>  <RMSD_UB>
11.953

$$$$
CHEMBL1290019
 OpenBabel10172500413D

 25 26  0  0  0  0  0  0  0  0999 V2000
  135.1100  134.3220  152.1250 C   0  0  0  0  0  0  0  0  0  0  0  0
  136.0860  134.4500  151.3760 O   0  0  0  0  0  0  0  0  0  0  0  0
  135.2350  134.8220  153.5250 C   0  0  0  0  0  0  0  0  0  0  0  0
  134.5940  134.0660  154.5270 C   0  0  0  0  0  3  0  0  0  0  0  0
  134.7110  134.3940  155.8870 C   0  0  0  0  0  3  0  0  0  0  0  0
  135.4830  135.4840  156.2710 C   0  0  0  0  0  0  0  0  0  0  0  0
  136.1030  136.2410  155.2760 C   0  0  0  0  0  0  0  0  0  0  0  0
  135.9880  135.9260  153.9180 C   0  0  0  0  0  0  0  0  0  0  0  0
  135.7180  135.9050  157.5530 O   0  0  0  0  0  0  0  0  0  0  0  0
  135.1260  135.1330  158.5930 C   0  0  0  0  0  1  0  0  0  0  0  0
  136.8880  137.3210  155.6120 O   0  0  0  0  0  0  0  0  0  0  0  0
  137.7680  137.3770  155.2970 H   0  0  0  0  0  0  0  0  0  0  0  0
  136.6790  136.7130  153.0400 O   0  0  0  0  0  0  0  0  0  0  0  0
  136.4860  136.6730  152.1240 H   0  0  0  0  0  0  0  0  0  0  0  0
  133.8620  133.6160  151.6390 C   0  0  0  0  0  2  0  0  0  0  0  0
  133.0360  134.7840  148.0970 C   0  0  0  0  0  0  0  0  0  0  0  0
  133.1120  134.7250  149.4940 C   0  0  0  0  0  3  0  0  0  0  0  0
  133.7120  133.6300  150.1370 C   0  0  0  0  0  0  0  0  0  0  0  0
  134.2120  132.5720  149.3650 C   0  0  0  0  0  3  0  0  0  0  0  0
  134.1270  132.6120  147.9750 C   0  0  0  0  0  3  0  0  0  0  0  0
  133.5490  133.7150  147.3490 C   0  0  0  0  0  0  0  0  0  0  0  0
  133.2260  137.0480  147.3790 C   0  0  0  0  0  1  0  0  0  0  0  0
  132.5030  135.8270  147.3840 O   0  0  0  0  0  0  0  0  0  0  0  0
  133.4850  133.7630  145.9820 O   0  0  0  0  0  0  0  0  0  0  0  0
  132.7450  133.4050  145.5340 H   0  0  0  0  0  0  0  0  0  0  0  0
  1  3  1  0  0  0  0
  2  1  2  0  0  0  0
  3  8  2  0  0  0  0
  3  4  1  0  0  0  0
  4  5  2  0  0  0  0
  5  6  1  0  0  0  0
  6  9  1  0  0  0  0
  7 11  1  0  0  0  0
  7  6  2  0  0  0  0
  8  7  1  0  0  0  0
  9 10  1  0  0  0  0
 12 11  1  0  0  0  0
 13  8  1  0  0  0  0
 14 13  1  0  0  0  0
 15  1  1  0  0  0  0
 16 17  1  0  0  0  0
 17 18  2  0  0  0  0
 18 15  1  0  0  0  0
 19 18  1  0  0  0  0
 20 19  2  0  0  0  0
 21 20  1  0  0  0  0
 21 16  2  0  0  0  0
 22 23  1  0  0  0  0
 23 16  1  0  0  0  0
 24 21  1  0  0  0  0
 25 24  1  0  0  0  0
M  END
>  <MODEL>
5

>  <REMARK>
 VINA RESULT:    -6.890      1.598      2.436
 INTER + INTRA:         -10.178
 INTER:                  -9.448
 INTRA:                  -0.730
 UNBOUND:                -0.670
  Name = CHEMBL1290019
  10 active torsions:
  status: ('A' for Active; 'I' for Inactive)
    1  A    between atoms: C_1  and  O_2
    2  A    between atoms: O_2  and  C_3
    3  A    between atoms: C_5  and  C_6
    4  A    between atoms: C_6  and  C_7
    5  A    between atoms: C_7  and  C_9
    6  A    between atoms: C_12  and  O_13
    7  A    between atoms: O_13  and  C_14
    8  A    between atoms: C_15  and  O_16
    9  A    between atoms: C_17  and  O_18
   10  A    between atoms: C_21  and  O_22
                            x       y       z     vdW  Elec       q    Type
                         _______ _______ _______ _____ _____    ______ ____

>  <TORSDO>
F 8

>  <SCORE>
-6.890

>  <RMSD_LB>
1.598

>  <RMSD_UB>
2.436

$$$$
CHEMBL1290019
 OpenBabel10172500413D

 25 26  0  0  0  0  0  0  0  0999 V2000
  140.9990  137.7870  152.9200 C   0  0  0  0  0  0  0  0  0  0  0  0
  140.0140  137.8690  153.6630 O   0  0  0  0  0  0  0  0  0  0  0  0
  142.3330  138.1390  153.4890 C   0  0  0  0  0  0  0  0  0  0  0  0
  143.4390  137.4170  153.0000 C   0  0  0  0  0  3  0  0  0  0  0  0
  144.7510  137.7160  153.4020 C   0  0  0  0  0  3  0  0  0  0  0  0
  144.9800  138.7550  154.2960 C   0  0  0  0  0  0  0  0  0  0  0  0
  143.8800  139.4590  154.7910 C   0  0  0  0  0  0  0  0  0  0  0  0
  142.5700  139.1640  154.4020 C   0  0  0  0  0  0  0  0  0  0  0  0
  146.1980  139.1860  154.7520 O   0  0  0  0  0  0  0  0  0  0  0  0
  147.0510  138.1950  155.3160 C   0  0  0  0  0  1  0  0  0  0  0  0
  144.0620  140.5030  155.6680 O   0  0  0  0  0  0  0  0  0  0  0  0
  143.5460  141.2810  155.5850 H   0  0  0  0  0  0  0  0  0  0  0  0
  141.5800  139.9510  154.9180 O   0  0  0  0  0  0  0  0  0  0  0  0
  141.4960  140.0510  155.8460 H   0  0  0  0  0  0  0  0  0  0  0  0
  140.8280  137.4070  151.4640 C   0  0  0  0  0  2  0  0  0  0  0  0
  137.7390  138.5430  149.5260 C   0  0  0  0  0  0  0  0  0  0  0  0
  138.6950  137.7300  150.1460 C   0  0  0  0  0  3  0  0  0  0  0  0
  139.8460  138.2850  150.7270 C   0  0  0  0  0  0  0  0  0  0  0  0
  140.0500  139.6700  150.6540 C   0  0  0  0  0  3  0  0  0  0  0  0
  139.1140  140.4890  150.0260 C   0  0  0  0  0  3  0  0  0  0  0  0
  137.9650  139.9260  149.4730 C   0  0  0  0  0  0  0  0  0  0  0  0
  136.5920  136.8120  148.3570 C   0  0  0  0  0  1  0  0  0  0  0  0
  136.5710  138.0940  148.9670 O   0  0  0  0  0  0  0  0  0  0  0  0
  137.0340  140.7340  148.8740 O   0  0  0  0  0  0  0  0  0  0  0  0
  137.1570  141.0140  147.9890 H   0  0  0  0  0  0  0  0  0  0  0  0
  1  3  1  0  0  0  0
  1  2  2  0  0  0  0
  3  8  1  0  0  0  0
  4  5  1  0  0  0  0
  4  3  2  0  0  0  0
  5  6  2  0  0  0  0
  6  9  1  0  0  0  0
  6  7  1  0  0  0  0
  7 11  1  0  0  0  0
  8  7  2  0  0  0  0
  8 13  1  0  0  0  0
  9 10  1  0  0  0  0
 12 11  1  0  0  0  0
 13 14  1  0  0  0  0
 15  1  1  0  0  0  0
 16 17  1  0  0  0  0
 17 18  2  0  0  0  0
 18 15  1  0  0  0  0
 19 18  1  0  0  0  0
 20 19  2  0  0  0  0
 21 16  2  0  0  0  0
 21 20  1  0  0  0  0
 22 23  1  0  0  0  0
 23 16  1  0  0  0  0
 24 21  1  0  0  0  0
 25 24  1  0  0  0  0
M  END
>  <MODEL>
6

>  <REMARK>
 VINA RESULT:    -6.780      6.840      8.326
 INTER + INTRA:         -10.026
 INTER:                  -9.155
 INTRA:                  -0.871
 UNBOUND:                -0.670
  Name = CHEMBL1290019
  10 active torsions:
  status: ('A' for Active; 'I' for Inactive)
    1  A    between atoms: C_1  and  O_2
    2  A    between atoms: O_2  and  C_3
    3  A    between atoms: C_5  and  C_6
    4  A    between atoms: C_6  and  C_7
    5  A    between atoms: C_7  and  C_9
    6  A    between atoms: C_12  and  O_13
    7  A    between atoms: O_13  and  C_14
    8  A    between atoms: C_15  and  O_16
    9  A    between atoms: C_17  and  O_18
   10  A    between atoms: C_21  and  O_22
                            x       y       z     vdW  Elec       q    Type
                         _______ _______ _______ _____ _____    ______ ____

>  <TORSDO>
F 8

>  <SCORE>
-6.780

>  <RMSD_LB>
6.840

>  <RMSD_UB>
8.326

$$$$
CHEMBL1290019
 OpenBabel10172500413D

 25 26  0  0  0  0  0  0  0  0999 V2000
  141.9950  138.6170  152.2540 C   0  0  0  0  0  0  0  0  0  0  0  0
  141.7260  139.4620  151.3920 O   0  0  0  0  0  0  0  0  0  0  0  0
  141.0400  138.4500  153.3890 C   0  0  0  0  0  0  0  0  0  0  0  0
  141.5380  137.8190  154.5460 C   0  0  0  0  0  3  0  0  0  0  0  0
  140.7560  137.6790  155.7040 C   0  0  0  0  0  3  0  0  0  0  0  0
  139.4590  138.1800  155.7270 C   0  0  0  0  0  0  0  0  0  0  0  0
  138.9630  138.7900  154.5730 C   0  0  0  0  0  0  0  0  0  0  0  0
  139.7320  138.9290  153.4140 C   0  0  0  0  0  0  0  0  0  0  0  0
  138.5920  138.1510  156.7870 O   0  0  0  0  0  0  0  0  0  0  0  0
  137.9170  136.9190  157.0210 C   0  0  0  0  0  1  0  0  0  0  0  0
  137.6900  139.3130  154.5560 O   0  0  0  0  0  0  0  0  0  0  0  0
  137.1670  139.2970  155.3330 H   0  0  0  0  0  0  0  0  0  0  0  0
  139.1550  139.5850  152.3640 O   0  0  0  0  0  0  0  0  0  0  0  0
  139.6890  139.9300  151.6760 H   0  0  0  0  0  0  0  0  0  0  0  0
  143.2900  137.8370  152.1810 C   0  0  0  0  0  2  0  0  0  0  0  0
  145.7240  140.5280  153.3740 C   0  0  0  0  0  0  0  0  0  0  0  0
  144.7120  139.8710  152.6650 C   0  0  0  0  0  3  0  0  0  0  0  0
  144.4370  138.5130  152.8920 C   0  0  0  0  0  0  0  0  0  0  0  0
  145.2110  137.8040  153.8220 C   0  0  0  0  0  3  0  0  0  0  0  0
  146.2310  138.4420  154.5230 C   0  0  0  0  0  3  0  0  0  0  0  0
  146.4790  139.7970  154.3030 C   0  0  0  0  0  0  0  0  0  0  0  0
  146.6090  142.2730  152.0140 C   0  0  0  0  0  1  0  0  0  0  0  0
  146.0370  141.8560  153.2450 O   0  0  0  0  0  0  0  0  0  0  0  0
  147.4680  140.4300  155.0080 O   0  0  0  0  0  0  0  0  0  0  0  0
  147.7800  141.2680  154.7290 H   0  0  0  0  0  0  0  0  0  0  0  0
  1  3  1  0  0  0  0
  2  1  2  0  0  0  0
  3  8  2  0  0  0  0
  3  4  1  0  0  0  0
  4  5  2  0  0  0  0
  5  6  1  0  0  0  0
  6  9  1  0  0  0  0
  7  6  2  0  0  0  0
  8  7  1  0  0  0  0
  9 10  1  0  0  0  0
 11  7  1  0  0  0  0
 11 12  1  0  0  0  0
 13  8  1  0  0  0  0
 14 13  1  0  0  0  0
 15  1  1  0  0  0  0
 15 18  1  0  0  0  0
 16 21  1  0  0  0  0
 17 18  1  0  0  0  0
 17 16  2  0  0  0  0
 18 19  2  0  0  0  0
 19 20  1  0  0  0  0
 21 20  2  0  0  0  0
 21 24  1  0  0  0  0
 22 23  1  0  0  0  0
 23 16  1  0  0  0  0
 25 24  1  0  0  0  0
M  END
>  <MODEL>
7

>  <REMARK>
 VINA RESULT:    -6.762      7.641     10.367
 INTER + INTRA:         -10.002
 INTER:                  -9.162
 INTRA:                  -0.840
 UNBOUND:                -0.670
  Name = CHEMBL1290019
  10 active torsions:
  status: ('A' for Active; 'I' for Inactive)
    1  A    between atoms: C_1  and  O_2
    2  A    between atoms: O_2  and  C_3
    3  A    between atoms: C_5  and  C_6
    4  A    between atoms: C_6  and  C_7
    5  A    between atoms: C_7  and  C_9
    6  A    between atoms: C_12  and  O_13
    7  A    between atoms: O_13  and  C_14
    8  A    between atoms: C_15  and  O_16
    9  A    between atoms: C_17  and  O_18
   10  A    between atoms: C_21  and  O_22
                            x       y       z     vdW  Elec       q    Type
                         _______ _______ _______ _____ _____    ______ ____

>  <TORSDO>
F 8

>  <SCORE>
-6.762

>  <RMSD_LB>
7.641

>  <RMSD_UB>
10.367

$$$$
CHEMBL1290019
 OpenBabel10172500413D

 25 26  0  0  0  0  0  0  0  0999 V2000
  141.8030  138.7890  154.3670 C   0  0  0  0  0  0  0  0  0  0  0  0
  142.5080  139.6170  154.9570 O   0  0  0  0  0  0  0  0  0  0  0  0
  140.5260  138.3720  155.0160 C   0  0  0  0  0  0  0  0  0  0  0  0
  140.6230  137.4220  156.0520 C   0  0  0  0  0  3  0  0  0  0  0  0
  139.4990  137.0150  156.7880 C   0  0  0  0  0  3  0  0  0  0  0  0
  138.2530  137.5640  156.5060 C   0  0  0  0  0  0  0  0  0  0  0  0
  138.1570  138.4930  155.4680 C   0  0  0  0  0  0  0  0  0  0  0  0
  139.2700  138.8990  154.7260 C   0  0  0  0  0  0  0  0  0  0  0  0
  137.0770  137.2950  157.1560 O   0  0  0  0  0  0  0  0  0  0  0  0
  136.9550  137.8030  158.4810 C   0  0  0  0  0  1  0  0  0  0  0  0
  136.9450  139.0710  155.1640 O   0  0  0  0  0  0  0  0  0  0  0  0
  136.8630  139.6140  154.4060 H   0  0  0  0  0  0  0  0  0  0  0  0
  139.0600  139.8480  153.7660 O   0  0  0  0  0  0  0  0  0  0  0  0
  138.2560  140.3300  153.7520 H   0  0  0  0  0  0  0  0  0  0  0  0
  142.2720  138.1780  153.0640 C   0  0  0  0  0  2  0  0  0  0  0  0
  145.9920  138.5130  152.2650 C   0  0  0  0  0  0  0  0  0  0  0  0
  144.6060  138.7060  152.2470 C   0  0  0  0  0  3  0  0  0  0  0  0
  143.7560  137.9060  153.0290 C   0  0  0  0  0  0  0  0  0  0  0  0
  144.3080  136.8840  153.8130 C   0  0  0  0  0  3  0  0  0  0  0  0
  145.6850  136.6710  153.8270 C   0  0  0  0  0  3  0  0  0  0  0  0
  146.5180  137.4860  153.0630 C   0  0  0  0  0  0  0  0  0  0  0  0
  146.7240  139.3540  150.1590 C   0  0  0  0  0  1  0  0  0  0  0  0
  146.8980  139.2670  151.5660 O   0  0  0  0  0  0  0  0  0  0  0  0
  147.8740  137.2910  153.0940 O   0  0  0  0  0  0  0  0  0  0  0  0
  148.4530  138.0270  153.0970 H   0  0  0  0  0  0  0  0  0  0  0  0
  1  2  2  0  0  0  0
  1  3  1  0  0  0  0
  3  4  1  0  0  0  0
  4  5  2  0  0  0  0
  6  5  1  0  0  0  0
  6  9  1  0  0  0  0
  7  6  2  0  0  0  0
  8  3  2  0  0  0  0
  8  7  1  0  0  0  0
  9 10  1  0  0  0  0
 11  7  1  0  0  0  0
 12 11  1  0  0  0  0
 13  8  1  0  0  0  0
 14 13  1  0  0  0  0
 15  1  1  0  0  0  0
 16 21  1  0  0  0  0
 17 16  2  0  0  0  0
 17 18  1  0  0  0  0
 18 15  1  0  0  0  0
 18 19  2  0  0  0  0
 19 20  1  0  0  0  0
 21 24  1  0  0  0  0
 21 20  2  0  0  0  0
 22 23  1  0  0  0  0
 23 16  1  0  0  0  0
 24 25  1  0  0  0  0
M  END
>  <MODEL>
8

>  <REMARK>
 VINA RESULT:    -6.694      7.199      9.564
 INTER + INTRA:          -9.908
 INTER:                  -9.238
 INTRA:                  -0.670
 UNBOUND:                -0.670
  Name = CHEMBL1290019
  10 active torsions:
  status: ('A' for Active; 'I' for Inactive)
    1  A    between atoms: C_1  and  O_2
    2  A    between atoms: O_2  and  C_3
    3  A    between atoms: C_5  and  C_6
    4  A    between atoms: C_6  and  C_7
    5  A    between atoms: C_7  and  C_9
    6  A    between atoms: C_12  and  O_13
    7  A    between atoms: O_13  and  C_14
    8  A    between atoms: C_15  and  O_16
    9  A    between atoms: C_17  and  O_18
   10  A    between atoms: C_21  and  O_22
                            x       y       z     vdW  Elec       q    Type
                         _______ _______ _______ _____ _____    ______ ____

>  <TORSDO>
F 8

>  <SCORE>
-6.694

>  <RMSD_LB>
7.199

>  <RMSD_UB>
9.564

$$$$
CHEMBL1290019
 OpenBabel10172500413D

 25 26  0  0  0  0  0  0  0  0999 V2000
  139.8310  138.8630  153.7140 C   0  0  0  0  0  0  0  0  0  0  0  0
  139.3570  139.6900  154.5010 O   0  0  0  0  0  0  0  0  0  0  0  0
  141.3020  138.6150  153.7650 C   0  0  0  0  0  0  0  0  0  0  0  0
  141.8110  137.6460  152.8760 C   0  0  0  0  0  3  0  0  0  0  0  0
  143.1870  137.3870  152.7780 C   0  0  0  0  0  3  0  0  0  0  0  0
  144.0830  138.1030  153.5630 C   0  0  0  0  0  0  0  0  0  0  0  0
  143.5750  139.0500  154.4540 C   0  0  0  0  0  0  0  0  0  0  0  0
  142.2050  139.3110  154.5630 C   0  0  0  0  0  0  0  0  0  0  0  0
  145.4480  137.9880  153.5540 O   0  0  0  0  0  0  0  0  0  0  0  0
  145.9730  136.6710  153.4180 C   0  0  0  0  0  1  0  0  0  0  0  0
  144.4270  139.7910  155.2410 O   0  0  0  0  0  0  0  0  0  0  0  0
  144.7250  140.6290  154.9480 H   0  0  0  0  0  0  0  0  0  0  0  0
  141.8310  140.2930  155.4370 O   0  0  0  0  0  0  0  0  0  0  0  0
  141.7300  140.0960  156.3470 H   0  0  0  0  0  0  0  0  0  0  0  0
  138.9430  138.1850  152.6920 C   0  0  0  0  0  2  0  0  0  0  0  0
  136.6210  136.6100  155.2840 C   0  0  0  0  0  0  0  0  0  0  0  0
  137.6790  137.3200  154.7040 C   0  0  0  0  0  3  0  0  0  0  0  0
  137.8480  137.3490  153.3100 C   0  0  0  0  0  0  0  0  0  0  0  0
  136.9590  136.6320  152.4970 C   0  0  0  0  0  3  0  0  0  0  0  0
  135.9120  135.9090  153.0640 C   0  0  0  0  0  3  0  0  0  0  0  0
  135.7440  135.9060  154.4480 C   0  0  0  0  0  0  0  0  0  0  0  0
  136.9340  137.5640  157.4460 C   0  0  0  0  0  1  0  0  0  0  0  0
  136.3580  136.5560  156.6280 O   0  0  0  0  0  0  0  0  0  0  0  0
  134.7010  135.2130  155.0030 O   0  0  0  0  0  0  0  0  0  0  0  0
  134.0230  135.6710  155.4590 H   0  0  0  0  0  0  0  0  0  0  0  0
  1  3  1  0  0  0  0
  1  2  2  0  0  0  0
  3  8  1  0  0  0  0
  4  3  2  0  0  0  0
  5  4  1  0  0  0  0
  5  6  2  0  0  0  0
  6  7  1  0  0  0  0
  7  8  2  0  0  0  0
  7 11  1  0  0  0  0
  8 13  1  0  0  0  0
  9  6  1  0  0  0  0
 10  9  1  0  0  0  0
 12 11  1  0  0  0  0
 13 14  1  0  0  0  0
 15 18  1  0  0  0  0
 15  1  1  0  0  0  0
 16 23  1  0  0  0  0
 17 16  1  0  0  0  0
 18 17  2  0  0  0  0
 19 20  2  0  0  0  0
 19 18  1  0  0  0  0
 20 21  1  0  0  0  0
 21 24  1  0  0  0  0
 21 16  2  0  0  0  0
 23 22  1  0  0  0  0
 24 25  1  0  0  0  0
M  END
>  <MODEL>
9

>  <REMARK>
 VINA RESULT:    -6.682      5.591      8.301
 INTER + INTRA:          -9.890
 INTER:                  -9.426
 INTRA:                  -0.465
 UNBOUND:                -0.670
  Name = CHEMBL1290019
  10 active torsions:
  status: ('A' for Active; 'I' for Inactive)
    1  A    between atoms: C_1  and  O_2
    2  A    between atoms: O_2  and  C_3
    3  A    between atoms: C_5  and  C_6
    4  A    between atoms: C_6  and  C_7
    5  A    between atoms: C_7  and  C_9
    6  A    between atoms: C_12  and  O_13
    7  A    between atoms: O_13  and  C_14
    8  A    between atoms: C_15  and  O_16
    9  A    between atoms: C_17  and  O_18
   10  A    between atoms: C_21  and  O_22
                            x       y       z     vdW  Elec       q    Type
                         _______ _______ _______ _____ _____    ______ ____

>  <TORSDO>
F 8

>  <SCORE>
-6.682

>  <RMSD_LB>
5.591

>  <RMSD_UB>
8.301

$$$$
