CHEMBL369481
 OpenBabel10172500443D

 34 34  0  0  1  0  0  0  0  0999 V2000
  142.5410  137.7430  152.9690 C   0  0  0  0  0  0  0  0  0  0  0  0
  141.6450  137.5220  151.9160 C   0  0  0  0  0  3  0  0  0  0  0  0
  140.2700  137.6890  152.1100 C   0  0  0  0  0  3  0  0  0  0  0  0
  139.7700  138.0660  153.3600 C   0  0  0  0  0  0  0  0  0  0  0  0
  140.6510  138.2580  154.4310 C   0  0  0  0  0  0  0  0  0  0  0  0
  142.0310  138.1370  154.2140 C   0  0  0  0  0  3  0  0  0  0  0  0
  140.3160  138.5950  155.7230 O   0  0  0  0  0  0  0  0  0  0  0  0
  140.1050  137.5220  156.6380 C   0  0  0  0  0  1  0  0  0  0  0  0
  144.0230  137.5280  152.7860 C   0  0  0  0  0  2  0  0  0  0  0  0
  145.8960  137.7610  154.3540 C   0  0  0  0  0  0  0  0  0  0  0  0
  146.2030  136.5720  154.2850 O   0  0  0  0  0  0  0  0  0  0  0  0
  144.8350  138.3170  153.6840 N   0  0  0  0  0  0  0  0  0  0  0  0
  144.6250  139.2700  153.8170 H   0  0  0  0  0  0  0  0  0  0  0  0
  146.6250  138.7730  155.2280 C   0  0  0  0  0  2  0  0  0  0  0  0
  148.0070  139.0970  154.6610 C   0  0  0  0  0  2  0  0  0  0  0  0
  147.9400  139.8680  153.3460 C   0  0  0  0  0  2  0  0  0  0  0  0
  148.0080  141.3700  153.6250 C   0  0  0  0  0  2  0  0  0  0  0  0
  146.6190  141.9970  153.6880 C   0  0  0  0  0  2  0  0  0  0  0  0
  146.1130  142.3340  152.2870 C   0  0  0  0  0  2  0  0  0  0  0  0
  146.7460  142.6100  149.8700 C   0  0  0  0  0  1  0  0  0  0  0  0
  147.2610  142.3760  151.2800 C   0  0  0  0  0  2  0  0  0  0  0  0
  138.4380  138.2530  153.5860 O   0  0  0  0  0  0  0  0  0  0  0  0
  137.5610  137.1440  153.4130 C   0  0  0  0  0  2  0  0  0  0  0  0
  136.9240  136.8470  154.7630 C   0  0  1  0  0  3  0  0  0  0  0  0
  136.5620  138.0630  155.4330 O   0  0  0  0  0  0  0  0  0  0  0  0
  135.7710  138.4380  155.0170 H   0  0  0  0  0  0  0  0  0  0  0  0
  135.6700  135.9960  154.5530 C   0  0  0  0  0  2  0  0  0  0  0  0
  135.2100  136.0170  153.1550 N   0  0  0  0  0  4  0  0  0  0  0  0
  135.9790  136.3400  152.5680 H   0  0  0  0  0  0  0  0  0  0  0  0
  134.4030  136.6410  153.1160 H   0  0  0  0  0  0  0  0  0  0  0  0
  134.7640  134.7020  152.6590 C   0  0  0  0  0  0  0  0  0  0  0  0
  134.5150  133.7160  153.8160 C   0  0  0  0  0  1  0  0  0  0  0  0
  133.4450  134.9010  151.8780 C   0  0  0  0  0  1  0  0  0  0  0  0
  135.8180  134.1370  151.7030 C   0  0  0  0  0  1  0  0  0  0  0  0
  1  6  1  0  0  0  0
  2  3  1  0  0  0  0
  2  1  2  0  0  0  0
  3  4  2  0  0  0  0
  4 22  1  0  0  0  0
  4  5  1  0  0  0  0
  5  7  1  0  0  0  0
  6  5  2  0  0  0  0
  7  8  1  0  0  0  0
  9  1  1  0  0  0  0
  9 12  1  0  0  0  0
 10 14  1  0  0  0  0
 11 10  2  0  0  0  0
 12 13  1  0  0  0  0
 12 10  1  0  0  0  0
 15 14  1  0  0  0  0
 16 17  1  0  0  0  0
 16 15  1  0  0  0  0
 17 18  1  0  0  0  0
 19 18  1  0  0  0  0
 20 21  1  0  0  0  0
 21 19  1  0  0  0  0
 23 22  1  0  0  0  0
 24 23  1  6  0  0  0
 24 25  1  0  0  0  0
 26 25  1  0  0  0  0
 27 24  1  0  0  0  0
 28 27  1  0  0  0  0
 29 28  1  0  0  0  0
 30 28  1  0  0  0  0
 31 28  1  0  0  0  0
 31 32  1  0  0  0  0
 33 31  1  0  0  0  0
 34 31  1  0  0  0  0
M  END
>  <MODEL>
1

>  <REMARK>
 VINA RESULT:    -7.283      0.000      0.000
 INTER + INTRA:         -15.447
 INTER:                 -14.183
 INTRA:                  -1.264
 UNBOUND:                -1.139
  Name = CHEMBL369481
  22 active torsions:
  status: ('A' for Active; 'I' for Inactive)
    1  A    between atoms: C_1  and  C_2
    2  A    between atoms: C_2  and  C_3
    3  A    between atoms: C_3  and  C_4
    4  A    between atoms: C_4  and  C_5
    5  A    between atoms: C_5  and  C_6
    6  A    between atoms: C_6  and  C_7
    7  A    between atoms: C_7  and  C_8
    8  A    between atoms: C_8  and  C_9
    9  A    between atoms: N_11  and  C_12
   10  A    between atoms: C_12  and  C_13
   11  A    between atoms: C_16  and  O_17
   12  A    between atoms: O_17  and  C_18
   13  A    between atoms: C_18  and  C_19
   14  A    between atoms: C_19  and  O_20
   15  A    between atoms: C_19  and  C_21
   16  A    between atoms: C_21  and  N_22
   17  A    between atoms: N_22  and  C_23
   18  A    between atoms: C_23  and  C_24
   19  A    between atoms: C_23  and  C_25
   20  A    between atoms: C_23  and  C_26
   21  A    between atoms: C_27  and  O_28
   22  A    between atoms: O_28  and  C_29
                            x       y       z     vdW  Elec       q    Type
                         _______ _______ _______ _____ _____    ______ ____

>  <TORSDO>
F 17

>  <SCORE>
-7.283

>  <RMSD_LB>
0.000

>  <RMSD_UB>
0.000

$$$$
CHEMBL369481
 OpenBabel10172500443D

 34 34  0  0  1  0  0  0  0  0999 V2000
  138.9690  137.6970  151.9320 C   0  0  0  0  0  0  0  0  0  0  0  0
  140.2680  137.4800  151.4580 C   0  0  0  0  0  3  0  0  0  0  0  0
  141.3690  137.6560  152.3030 C   0  0  0  0  0  3  0  0  0  0  0  0
  141.1890  138.0620  153.6270 C   0  0  0  0  0  0  0  0  0  0  0  0
  139.8980  138.3160  154.1070 C   0  0  0  0  0  0  0  0  0  0  0  0
  138.7990  138.0890  153.2670 C   0  0  0  0  0  3  0  0  0  0  0  0
  139.5580  138.7520  155.3680 O   0  0  0  0  0  0  0  0  0  0  0  0
  139.1600  137.7590  156.3100 C   0  0  0  0  0  1  0  0  0  0  0  0
  137.7750  137.5510  151.0220 C   0  0  0  0  0  2  0  0  0  0  0  0
  136.2570  135.7940  151.8140 C   0  0  0  0  0  0  0  0  0  0  0  0
  135.7740  136.5010  152.6970 O   0  0  0  0  0  0  0  0  0  0  0  0
  137.2540  136.2040  150.9660 N   0  0  0  0  0  0  0  0  0  0  0  0
  137.6210  135.5700  150.3070 H   0  0  0  0  0  0  0  0  0  0  0  0
  135.8460  134.3470  151.5700 C   0  0  0  0  0  2  0  0  0  0  0  0
  134.3420  134.1620  151.7690 C   0  0  0  0  0  2  0  0  0  0  0  0
  133.7500  133.1050  150.8410 C   0  0  0  0  0  2  0  0  0  0  0  0
  134.0480  133.4680  149.3870 C   0  0  0  0  0  2  0  0  0  0  0  0
  133.1130  134.5590  148.8740 C   0  0  0  0  0  2  0  0  0  0  0  0
  133.9100  135.7710  148.3930 C   0  0  0  0  0  2  0  0  0  0  0  0
  132.3060  136.9660  146.8710 C   0  0  0  0  0  1  0  0  0  0  0  0
  133.0080  136.9910  148.2180 C   0  0  0  0  0  2  0  0  0  0  0  0
  142.2350  138.2310  154.4870 O   0  0  0  0  0  0  0  0  0  0  0  0
  143.5360  138.4180  153.9390 C   0  0  0  0  0  2  0  0  0  0  0  0
  144.1410  139.6480  154.6020 C   0  0  1  0  0  3  0  0  0  0  0  0
  143.9290  139.6170  156.0210 O   0  0  0  0  0  0  0  0  0  0  0  0
  143.3150  140.3240  156.2710 H   0  0  0  0  0  0  0  0  0  0  0  0
  145.6440  139.6860  154.3190 C   0  0  0  0  0  2  0  0  0  0  0  0
  146.1990  141.0440  154.4360 N   0  0  0  0  0  4  0  0  0  0  0  0
  146.4910  141.1910  155.4020 H   0  0  0  0  0  0  0  0  0  0  0  0
  145.4640  141.6920  154.1500 H   0  0  0  0  0  0  0  0  0  0  0  0
  147.3560  141.2880  153.5550 C   0  0  0  0  0  0  0  0  0  0  0  0
  148.5380  141.9000  154.3310 C   0  0  0  0  0  1  0  0  0  0  0  0
  147.8000  139.9350  152.9550 C   0  0  0  0  0  1  0  0  0  0  0  0
  146.9370  142.2170  152.4130 C   0  0  0  0  0  1  0  0  0  0  0  0
  1  6  1  0  0  0  0
  2  1  2  0  0  0  0
  2  3  1  0  0  0  0
  3  4  2  0  0  0  0
  4  5  1  0  0  0  0
  4 22  1  0  0  0  0
  5  7  1  0  0  0  0
  6  5  2  0  0  0  0
  7  8  1  0  0  0  0
  9  1  1  0  0  0  0
 10 11  2  0  0  0  0
 12  9  1  0  0  0  0
 12 10  1  0  0  0  0
 13 12  1  0  0  0  0
 14 15  1  0  0  0  0
 14 10  1  0  0  0  0
 16 15  1  0  0  0  0
 17 16  1  0  0  0  0
 18 17  1  0  0  0  0
 19 18  1  0  0  0  0
 20 21  1  0  0  0  0
 21 19  1  0  0  0  0
 23 22  1  0  0  0  0
 24 23  1  6  0  0  0
 24 25  1  0  0  0  0
 25 26  1  0  0  0  0
 27 28  1  0  0  0  0
 27 24  1  0  0  0  0
 28 29  1  0  0  0  0
 30 28  1  0  0  0  0
 31 32  1  0  0  0  0
 31 28  1  0  0  0  0
 33 31  1  0  0  0  0
 34 31  1  0  0  0  0
M  END
>  <MODEL>
2

>  <REMARK>
 VINA RESULT:    -7.196      2.338     10.854
 INTER + INTRA:         -15.276
 INTER:                 -14.133
 INTRA:                  -1.143
 UNBOUND:                -1.139
  Name = CHEMBL369481
  22 active torsions:
  status: ('A' for Active; 'I' for Inactive)
    1  A    between atoms: C_1  and  C_2
    2  A    between atoms: C_2  and  C_3
    3  A    between atoms: C_3  and  C_4
    4  A    between atoms: C_4  and  C_5
    5  A    between atoms: C_5  and  C_6
    6  A    between atoms: C_6  and  C_7
    7  A    between atoms: C_7  and  C_8
    8  A    between atoms: C_8  and  C_9
    9  A    between atoms: N_11  and  C_12
   10  A    between atoms: C_12  and  C_13
   11  A    between atoms: C_16  and  O_17
   12  A    between atoms: O_17  and  C_18
   13  A    between atoms: C_18  and  C_19
   14  A    between atoms: C_19  and  O_20
   15  A    between atoms: C_19  and  C_21
   16  A    between atoms: C_21  and  N_22
   17  A    between atoms: N_22  and  C_23
   18  A    between atoms: C_23  and  C_24
   19  A    between atoms: C_23  and  C_25
   20  A    between atoms: C_23  and  C_26
   21  A    between atoms: C_27  and  O_28
   22  A    between atoms: O_28  and  C_29
                            x       y       z     vdW  Elec       q    Type
                         _______ _______ _______ _____ _____    ______ ____

>  <TORSDO>
F 17

>  <SCORE>
-7.196

>  <RMSD_LB>
2.338

>  <RMSD_UB>
10.854

$$$$
CHEMBL369481
 OpenBabel10172500443D

 34 34  0  0  1  0  0  0  0  0999 V2000
  137.2370  136.4590  155.3310 C   0  0  0  0  0  0  0  0  0  0  0  0
  138.0430  136.5900  156.4690 C   0  0  0  0  0  3  0  0  0  0  0  0
  139.1350  137.4640  156.4650 C   0  0  0  0  0  3  0  0  0  0  0  0
  139.4450  138.2080  155.3240 C   0  0  0  0  0  0  0  0  0  0  0  0
  138.6690  138.0630  154.1680 C   0  0  0  0  0  0  0  0  0  0  0  0
  137.5470  137.2220  154.1970 C   0  0  0  0  0  3  0  0  0  0  0  0
  138.8620  138.6950  152.9600 O   0  0  0  0  0  0  0  0  0  0  0  0
  139.2110  137.8730  151.8490 C   0  0  0  0  0  1  0  0  0  0  0  0
  136.0800  135.4900  155.3060 C   0  0  0  0  0  2  0  0  0  0  0  0
  134.0780  135.3470  153.8960 C   0  0  0  0  0  0  0  0  0  0  0  0
  133.3080  135.3470  154.8550 O   0  0  0  0  0  0  0  0  0  0  0  0
  135.4440  135.3860  154.0120 N   0  0  0  0  0  0  0  0  0  0  0  0
  136.0010  135.3450  153.2000 H   0  0  0  0  0  0  0  0  0  0  0  0
  133.6210  135.2580  152.4460 C   0  0  0  0  0  2  0  0  0  0  0  0
  134.5880  134.4170  151.6140 C   0  0  0  0  0  2  0  0  0  0  0  0
  133.9450  133.1480  151.0650 C   0  0  0  0  0  2  0  0  0  0  0  0
  132.8310  133.5140  150.0850 C   0  0  0  0  0  2  0  0  0  0  0  0
  133.3060  133.4440  148.6370 C   0  0  0  0  0  2  0  0  0  0  0  0
  132.7750  134.6320  147.8360 C   0  0  0  0  0  2  0  0  0  0  0  0
  132.7840  137.1020  148.3000 C   0  0  0  0  0  1  0  0  0  0  0  0
  133.6400  135.8720  148.0480 C   0  0  0  0  0  2  0  0  0  0  0  0
  140.4920  139.0820  155.2850 O   0  0  0  0  0  0  0  0  0  0  0  0
  141.7860  138.5720  154.9800 C   0  0  0  0  0  2  0  0  0  0  0  0
  142.8020  139.6450  155.3460 C   0  0  1  0  0  3  0  0  0  0  0  0
  143.0430  139.6550  156.7600 O   0  0  0  0  0  0  0  0  0  0  0  0
  143.1900  138.7480  157.0690 H   0  0  0  0  0  0  0  0  0  0  0  0
  144.1160  139.3680  154.6130 C   0  0  0  0  0  2  0  0  0  0  0  0
  145.2560  139.2550  155.5370 N   0  0  0  0  0  4  0  0  0  0  0  0
  145.0500  138.5220  156.2150 H   0  0  0  0  0  0  0  0  0  0  0  0
  145.3750  140.1680  155.9770 H   0  0  0  0  0  0  0  0  0  0  0  0
  146.5290  138.9290  154.8680 C   0  0  0  0  0  0  0  0  0  0  0  0
  147.1920  140.1850  154.2710 C   0  0  0  0  0  1  0  0  0  0  0  0
  147.4820  138.3110  155.9170 C   0  0  0  0  0  1  0  0  0  0  0  0
  146.2730  137.8950  153.7690 C   0  0  0  0  0  1  0  0  0  0  0  0
  1  2  1  0  0  0  0
  3  2  2  0  0  0  0
  4  3  1  0  0  0  0
  5  6  1  0  0  0  0
  5  4  2  0  0  0  0
  6  1  2  0  0  0  0
  7  5  1  0  0  0  0
  8  7  1  0  0  0  0
  9  1  1  0  0  0  0
 10 12  1  0  0  0  0
 10 11  2  0  0  0  0
 12  9  1  0  0  0  0
 13 12  1  0  0  0  0
 14 10  1  0  0  0  0
 15 14  1  0  0  0  0
 16 15  1  0  0  0  0
 17 16  1  0  0  0  0
 18 17  1  0  0  0  0
 19 21  1  0  0  0  0
 19 18  1  0  0  0  0
 21 20  1  0  0  0  0
 22  4  1  0  0  0  0
 23 22  1  0  0  0  0
 23 24  1  0  0  0  0
 24 27  1  6  0  0  0
 24 25  1  0  0  0  0
 25 26  1  0  0  0  0
 27 28  1  0  0  0  0
 28 30  1  0  0  0  0
 28 29  1  0  0  0  0
 31 28  1  0  0  0  0
 31 33  1  0  0  0  0
 32 31  1  0  0  0  0
 34 31  1  0  0  0  0
M  END
>  <MODEL>
3

>  <REMARK>
 VINA RESULT:    -7.180      2.151     10.989
 INTER + INTRA:         -15.244
 INTER:                 -13.915
 INTRA:                  -1.329
 UNBOUND:                -1.139
  Name = CHEMBL369481
  22 active torsions:
  status: ('A' for Active; 'I' for Inactive)
    1  A    between atoms: C_1  and  C_2
    2  A    between atoms: C_2  and  C_3
    3  A    between atoms: C_3  and  C_4
    4  A    between atoms: C_4  and  C_5
    5  A    between atoms: C_5  and  C_6
    6  A    between atoms: C_6  and  C_7
    7  A    between atoms: C_7  and  C_8
    8  A    between atoms: C_8  and  C_9
    9  A    between atoms: N_11  and  C_12
   10  A    between atoms: C_12  and  C_13
   11  A    between atoms: C_16  and  O_17
   12  A    between atoms: O_17  and  C_18
   13  A    between atoms: C_18  and  C_19
   14  A    between atoms: C_19  and  O_20
   15  A    between atoms: C_19  and  C_21
   16  A    between atoms: C_21  and  N_22
   17  A    between atoms: N_22  and  C_23
   18  A    between atoms: C_23  and  C_24
   19  A    between atoms: C_23  and  C_25
   20  A    between atoms: C_23  and  C_26
   21  A    between atoms: C_27  and  O_28
   22  A    between atoms: O_28  and  C_29
                            x       y       z     vdW  Elec       q    Type
                         _______ _______ _______ _____ _____    ______ ____

>  <TORSDO>
F 17

>  <SCORE>
-7.180

>  <RMSD_LB>
2.151

>  <RMSD_UB>
10.989

$$$$
CHEMBL369481
 OpenBabel10172500443D

 34 34  0  0  1  0  0  0  0  0999 V2000
  135.5940  135.9130  153.6240 C   0  0  0  0  0  0  0  0  0  0  0  0
  134.2260  135.6170  153.5890 C   0  0  0  0  0  3  0  0  0  0  0  0
  133.5870  135.3660  152.3700 C   0  0  0  0  0  3  0  0  0  0  0  0
  134.3020  135.4200  151.1700 C   0  0  0  0  0  0  0  0  0  0  0  0
  135.6630  135.7490  151.1860 C   0  0  0  0  0  0  0  0  0  0  0  0
  136.3050  135.9490  152.4160 C   0  0  0  0  0  3  0  0  0  0  0  0
  136.4930  135.8760  150.0950 O   0  0  0  0  0  0  0  0  0  0  0  0
  136.9500  137.1890  149.7810 C   0  0  0  0  0  1  0  0  0  0  0  0
  136.2890  136.2250  154.9270 C   0  0  0  0  0  2  0  0  0  0  0  0
  137.7880  138.1610  155.0790 C   0  0  0  0  0  0  0  0  0  0  0  0
  136.9020  138.9130  155.4810 O   0  0  0  0  0  0  0  0  0  0  0  0
  137.5840  136.8440  154.7550 N   0  0  0  0  0  0  0  0  0  0  0  0
  138.3320  136.3100  154.4020 H   0  0  0  0  0  0  0  0  0  0  0  0
  139.2270  138.6010  154.8410 C   0  0  0  0  0  2  0  0  0  0  0  0
  139.6900  138.2320  153.4330 C   0  0  0  0  0  2  0  0  0  0  0  0
  141.1740  137.8840  153.3720 C   0  0  0  0  0  2  0  0  0  0  0  0
  141.6180  137.7640  151.9150 C   0  0  0  0  0  2  0  0  0  0  0  0
  140.4340  137.5450  150.9790 C   0  0  0  0  0  2  0  0  0  0  0  0
  140.6630  138.2470  149.6420 C   0  0  0  0  0  2  0  0  0  0  0  0
  139.3580  140.2840  150.3210 C   0  0  0  0  0  1  0  0  0  0  0  0
  140.6910  139.7640  149.8120 C   0  0  0  0  0  2  0  0  0  0  0  0
  133.7190  135.1690  149.9630 O   0  0  0  0  0  0  0  0  0  0  0  0
  133.0400  133.9290  149.7850 C   0  0  0  0  0  2  0  0  0  0  0  0
  133.2150  133.5140  148.3310 C   0  0  1  0  0  3  0  0  0  0  0  0
  131.9520  133.5050  147.6500 O   0  0  0  0  0  0  0  0  0  0  0  0
  131.7950  134.3740  147.2500 H   0  0  0  0  0  0  0  0  0  0  0  0
  134.1560  134.4980  147.6340 C   0  0  0  0  0  2  0  0  0  0  0  0
  133.5860  135.0240  146.3830 N   0  0  0  0  0  4  0  0  0  0  0  0
  132.6490  134.6360  146.2680 H   0  0  0  0  0  0  0  0  0  0  0  0
  134.2150  134.7480  145.6290 H   0  0  0  0  0  0  0  0  0  0  0  0
  133.4890  136.4950  146.3500 C   0  0  0  0  0  0  0  0  0  0  0  0
  132.3690  137.0100  147.2730 C   0  0  0  0  0  1  0  0  0  0  0  0
  134.8390  137.0790  146.8280 C   0  0  0  0  0  1  0  0  0  0  0  0
  133.2400  136.9540  144.9110 C   0  0  0  0  0  1  0  0  0  0  0  0
  1  9  1  0  0  0  0
  2  1  1  0  0  0  0
  3  2  2  0  0  0  0
  4  5  2  0  0  0  0
  4  3  1  0  0  0  0
  5  6  1  0  0  0  0
  6  1  2  0  0  0  0
  7  5  1  0  0  0  0
  8  7  1  0  0  0  0
 10 11  2  0  0  0  0
 12  9  1  0  0  0  0
 12 10  1  0  0  0  0
 13 12  1  0  0  0  0
 14 10  1  0  0  0  0
 15 14  1  0  0  0  0
 16 15  1  0  0  0  0
 17 16  1  0  0  0  0
 18 17  1  0  0  0  0
 19 21  1  0  0  0  0
 19 18  1  0  0  0  0
 21 20  1  0  0  0  0
 22  4  1  0  0  0  0
 23 22  1  0  0  0  0
 24 27  1  6  0  0  0
 24 23  1  0  0  0  0
 25 24  1  0  0  0  0
 26 25  1  0  0  0  0
 28 27  1  0  0  0  0
 29 28  1  0  0  0  0
 30 28  1  0  0  0  0
 31 28  1  0  0  0  0
 31 33  1  0  0  0  0
 31 32  1  0  0  0  0
 34 31  1  0  0  0  0
M  END
>  <MODEL>
4

>  <REMARK>
 VINA RESULT:    -7.012      4.488      7.527
 INTER + INTRA:         -14.916
 INTER:                 -12.869
 INTRA:                  -2.047
 UNBOUND:                -1.139
  Name = CHEMBL369481
  22 active torsions:
  status: ('A' for Active; 'I' for Inactive)
    1  A    between atoms: C_1  and  C_2
    2  A    between atoms: C_2  and  C_3
    3  A    between atoms: C_3  and  C_4
    4  A    between atoms: C_4  and  C_5
    5  A    between atoms: C_5  and  C_6
    6  A    between atoms: C_6  and  C_7
    7  A    between atoms: C_7  and  C_8
    8  A    between atoms: C_8  and  C_9
    9  A    between atoms: N_11  and  C_12
   10  A    between atoms: C_12  and  C_13
   11  A    between atoms: C_16  and  O_17
   12  A    between atoms: O_17  and  C_18
   13  A    between atoms: C_18  and  C_19
   14  A    between atoms: C_19  and  O_20
   15  A    between atoms: C_19  and  C_21
   16  A    between atoms: C_21  and  N_22
   17  A    between atoms: N_22  and  C_23
   18  A    between atoms: C_23  and  C_24
   19  A    between atoms: C_23  and  C_25
   20  A    between atoms: C_23  and  C_26
   21  A    between atoms: C_27  and  O_28
   22  A    between atoms: O_28  and  C_29
                            x       y       z     vdW  Elec       q    Type
                         _______ _______ _______ _____ _____    ______ ____

>  <TORSDO>
F 17

>  <SCORE>
-7.012

>  <RMSD_LB>
4.488

>  <RMSD_UB>
7.527

$$$$
CHEMBL369481
 OpenBabel10172500443D

 34 34  0  0  1  0  0  0  0  0999 V2000
  139.9900  138.3990  153.5720 C   0  0  0  0  0  0  0  0  0  0  0  0
  139.7790  137.8400  152.3050 C   0  0  0  0  0  3  0  0  0  0  0  0
  138.5410  137.2780  151.9760 C   0  0  0  0  0  3  0  0  0  0  0  0
  137.5020  137.2550  152.9100 C   0  0  0  0  0  0  0  0  0  0  0  0
  137.7070  137.7790  154.1920 C   0  0  0  0  0  0  0  0  0  0  0  0
  138.9350  138.3850  154.4950 C   0  0  0  0  0  3  0  0  0  0  0  0
  136.8020  137.8010  155.2280 O   0  0  0  0  0  0  0  0  0  0  0  0
  137.3220  137.6250  156.5440 C   0  0  0  0  0  1  0  0  0  0  0  0
  141.3320  138.9720  153.9550 C   0  0  0  0  0  2  0  0  0  0  0  0
  143.5990  139.2490  153.0600 C   0  0  0  0  0  0  0  0  0  0  0  0
  144.1040  139.3930  154.1720 O   0  0  0  0  0  0  0  0  0  0  0  0
  142.2560  139.0660  152.8480 N   0  0  0  0  0  0  0  0  0  0  0  0
  141.9160  138.9960  151.9260 H   0  0  0  0  0  0  0  0  0  0  0  0
  144.3900  139.2980  151.7590 C   0  0  0  0  0  2  0  0  0  0  0  0
  144.1000  140.5840  150.9860 C   0  0  0  0  0  2  0  0  0  0  0  0
  145.3680  141.3250  150.5750 C   0  0  0  0  0  2  0  0  0  0  0  0
  145.5380  142.5760  151.4360 C   0  0  0  0  0  2  0  0  0  0  0  0
  146.4070  142.3080  152.6600 C   0  0  0  0  0  2  0  0  0  0  0  0
  147.8350  141.9580  152.2430 C   0  0  0  0  0  2  0  0  0  0  0  0
  147.5070  140.4000  154.1880 C   0  0  0  0  0  1  0  0  0  0  0  0
  148.3150  140.6840  152.9340 C   0  0  0  0  0  2  0  0  0  0  0  0
  136.2760  136.7290  152.6230 O   0  0  0  0  0  0  0  0  0  0  0  0
  135.9570  135.4400  153.1370 C   0  0  0  0  0  2  0  0  0  0  0  0
  134.4790  135.4450  153.5050 C   0  0  1  0  0  3  0  0  0  0  0  0
  134.1210  136.6720  154.1560 O   0  0  0  0  0  0  0  0  0  0  0  0
  133.9650  136.5040  155.0980 H   0  0  0  0  0  0  0  0  0  0  0  0
  133.6430  135.2870  152.2330 C   0  0  0  0  0  2  0  0  0  0  0  0
  134.4470  134.8240  151.0910 N   0  0  0  0  0  4  0  0  0  0  0  0
  135.1150  134.1310  151.4280 H   0  0  0  0  0  0  0  0  0  0  0  0
  134.9060  135.6450  150.6960 H   0  0  0  0  0  0  0  0  0  0  0  0
  133.6470  134.2140  150.0130 C   0  0  0  0  0  0  0  0  0  0  0  0
  133.6100  135.1110  148.7610 C   0  0  0  0  0  1  0  0  0  0  0  0
  134.2910  132.8600  149.6380 C   0  0  0  0  0  1  0  0  0  0  0  0
  132.2250  133.9580  150.5200 C   0  0  0  0  0  1  0  0  0  0  0  0
  1  9  1  0  0  0  0
  1  6  1  0  0  0  0
  2  1  2  0  0  0  0
  3  2  1  0  0  0  0
  3  4  2  0  0  0  0
  4  5  1  0  0  0  0
  5  6  2  0  0  0  0
  5  7  1  0  0  0  0
  7  8  1  0  0  0  0
 10 11  2  0  0  0  0
 12 10  1  0  0  0  0
 12  9  1  0  0  0  0
 13 12  1  0  0  0  0
 14 10  1  0  0  0  0
 15 14  1  0  0  0  0
 16 15  1  0  0  0  0
 16 17  1  0  0  0  0
 17 18  1  0  0  0  0
 19 18  1  0  0  0  0
 19 21  1  0  0  0  0
 21 20  1  0  0  0  0
 22  4  1  0  0  0  0
 22 23  1  0  0  0  0
 23 24  1  0  0  0  0
 24 27  1  6  0  0  0
 24 25  1  0  0  0  0
 25 26  1  0  0  0  0
 28 29  1  0  0  0  0
 28 27  1  0  0  0  0
 30 28  1  0  0  0  0
 31 34  1  0  0  0  0
 31 28  1  0  0  0  0
 32 31  1  0  0  0  0
 33 31  1  0  0  0  0
M  END
>  <MODEL>
5

>  <REMARK>
 VINA RESULT:    -6.997      1.929      3.276
 INTER + INTRA:         -14.885
 INTER:                 -13.055
 INTRA:                  -1.830
 UNBOUND:                -1.139
  Name = CHEMBL369481
  22 active torsions:
  status: ('A' for Active; 'I' for Inactive)
    1  A    between atoms: C_1  and  C_2
    2  A    between atoms: C_2  and  C_3
    3  A    between atoms: C_3  and  C_4
    4  A    between atoms: C_4  and  C_5
    5  A    between atoms: C_5  and  C_6
    6  A    between atoms: C_6  and  C_7
    7  A    between atoms: C_7  and  C_8
    8  A    between atoms: C_8  and  C_9
    9  A    between atoms: N_11  and  C_12
   10  A    between atoms: C_12  and  C_13
   11  A    between atoms: C_16  and  O_17
   12  A    between atoms: O_17  and  C_18
   13  A    between atoms: C_18  and  C_19
   14  A    between atoms: C_19  and  O_20
   15  A    between atoms: C_19  and  C_21
   16  A    between atoms: C_21  and  N_22
   17  A    between atoms: N_22  and  C_23
   18  A    between atoms: C_23  and  C_24
   19  A    between atoms: C_23  and  C_25
   20  A    between atoms: C_23  and  C_26
   21  A    between atoms: C_27  and  O_28
   22  A    between atoms: O_28  and  C_29
                            x       y       z     vdW  Elec       q    Type
                         _______ _______ _______ _____ _____    ______ ____

>  <TORSDO>
F 17

>  <SCORE>
-6.997

>  <RMSD_LB>
1.929

>  <RMSD_UB>
3.276

$$$$
CHEMBL369481
 OpenBabel10172500443D

 34 34  0  0  1  0  0  0  0  0999 V2000
  140.7540  138.5720  153.7370 C   0  0  0  0  0  0  0  0  0  0  0  0
  140.7230  137.7410  152.6100 C   0  0  0  0  0  3  0  0  0  0  0  0
  141.8920  137.4910  151.8830 C   0  0  0  0  0  3  0  0  0  0  0  0
  143.1020  138.0760  152.2630 C   0  0  0  0  0  0  0  0  0  0  0  0
  143.1430  138.9350  153.3680 C   0  0  0  0  0  0  0  0  0  0  0  0
  141.9770  139.1400  154.1200 C   0  0  0  0  0  3  0  0  0  0  0  0
  144.2420  139.6110  153.8470 O   0  0  0  0  0  0  0  0  0  0  0  0
  145.0580  138.9290  154.7960 C   0  0  0  0  0  1  0  0  0  0  0  0
  139.4940  138.8830  154.5080 C   0  0  0  0  0  2  0  0  0  0  0  0
  137.4770  137.8190  155.4110 C   0  0  0  0  0  0  0  0  0  0  0  0
  136.9430  138.8900  155.6900 O   0  0  0  0  0  0  0  0  0  0  0  0
  138.7280  137.7090  154.8580 N   0  0  0  0  0  0  0  0  0  0  0  0
  139.1090  136.8150  154.6960 H   0  0  0  0  0  0  0  0  0  0  0  0
  136.8410  136.4610  155.6810 C   0  0  0  0  0  2  0  0  0  0  0  0
  136.0730  135.9590  154.4590 C   0  0  0  0  0  2  0  0  0  0  0  0
  135.0620  134.8700  154.8040 C   0  0  0  0  0  2  0  0  0  0  0  0
  134.7710  134.0240  153.5650 C   0  0  0  0  0  2  0  0  0  0  0  0
  134.7420  134.8710  152.2960 C   0  0  0  0  0  2  0  0  0  0  0  0
  135.0500  134.0150  151.0690 C   0  0  0  0  0  2  0  0  0  0  0  0
  132.5910  134.1980  150.5840 C   0  0  0  0  0  1  0  0  0  0  0  0
  133.8040  133.2830  150.5790 C   0  0  0  0  0  2  0  0  0  0  0  0
  144.2660  137.8460  151.5900 O   0  0  0  0  0  0  0  0  0  0  0  0
  144.2260  137.8030  150.1670 C   0  0  0  0  0  2  0  0  0  0  0  0
  144.7930  139.1190  149.6510 C   0  0  1  0  0  3  0  0  0  0  0  0
  143.8170  140.1660  149.7500 O   0  0  0  0  0  0  0  0  0  0  0  0
  143.6020  140.4920  148.8630 H   0  0  0  0  0  0  0  0  0  0  0  0
  146.0230  139.4970  150.4790 C   0  0  0  0  0  2  0  0  0  0  0  0
  145.7000  140.4500  151.5530 N   0  0  0  0  0  4  0  0  0  0  0  0
  145.7730  139.9650  152.4470 H   0  0  0  0  0  0  0  0  0  0  0  0
  144.7560  140.7930  151.3730 H   0  0  0  0  0  0  0  0  0  0  0  0
  146.5880  141.6270  151.5860 C   0  0  0  0  0  0  0  0  0  0  0  0
  146.2290  142.6380  150.4810 C   0  0  0  0  0  1  0  0  0  0  0  0
  146.4290  142.3140  152.9620 C   0  0  0  0  0  1  0  0  0  0  0  0
  148.0410  141.1700  151.4320 C   0  0  0  0  0  1  0  0  0  0  0  0
  1  6  1  0  0  0  0
  1  9  1  0  0  0  0
  2  1  2  0  0  0  0
  3  4  2  0  0  0  0
  3  2  1  0  0  0  0
  4  5  1  0  0  0  0
  5  7  1  0  0  0  0
  5  6  2  0  0  0  0
  7  8  1  0  0  0  0
  9 12  1  0  0  0  0
 10 14  1  0  0  0  0
 10 11  2  0  0  0  0
 12 10  1  0  0  0  0
 13 12  1  0  0  0  0
 15 16  1  0  0  0  0
 15 14  1  0  0  0  0
 17 16  1  0  0  0  0
 18 17  1  0  0  0  0
 19 18  1  0  0  0  0
 21 20  1  0  0  0  0
 21 19  1  0  0  0  0
 22  4  1  0  0  0  0
 23 22  1  0  0  0  0
 24 25  1  0  0  0  0
 24 23  1  1  0  0  0
 24 27  1  0  0  0  0
 26 25  1  0  0  0  0
 27 28  1  0  0  0  0
 28 31  1  0  0  0  0
 28 29  1  0  0  0  0
 30 28  1  0  0  0  0
 31 33  1  0  0  0  0
 32 31  1  0  0  0  0
 34 31  1  0  0  0  0
M  END
>  <MODEL>
6

>  <REMARK>
 VINA RESULT:    -6.970      2.243     10.476
 INTER + INTRA:         -14.833
 INTER:                 -13.119
 INTRA:                  -1.714
 UNBOUND:                -1.139
  Name = CHEMBL369481
  22 active torsions:
  status: ('A' for Active; 'I' for Inactive)
    1  A    between atoms: C_1  and  C_2
    2  A    between atoms: C_2  and  C_3
    3  A    between atoms: C_3  and  C_4
    4  A    between atoms: C_4  and  C_5
    5  A    between atoms: C_5  and  C_6
    6  A    between atoms: C_6  and  C_7
    7  A    between atoms: C_7  and  C_8
    8  A    between atoms: C_8  and  C_9
    9  A    between atoms: N_11  and  C_12
   10  A    between atoms: C_12  and  C_13
   11  A    between atoms: C_16  and  O_17
   12  A    between atoms: O_17  and  C_18
   13  A    between atoms: C_18  and  C_19
   14  A    between atoms: C_19  and  O_20
   15  A    between atoms: C_19  and  C_21
   16  A    between atoms: C_21  and  N_22
   17  A    between atoms: N_22  and  C_23
   18  A    between atoms: C_23  and  C_24
   19  A    between atoms: C_23  and  C_25
   20  A    between atoms: C_23  and  C_26
   21  A    between atoms: C_27  and  O_28
   22  A    between atoms: O_28  and  C_29
                            x       y       z     vdW  Elec       q    Type
                         _______ _______ _______ _____ _____    ______ ____

>  <TORSDO>
F 17

>  <SCORE>
-6.970

>  <RMSD_LB>
2.243

>  <RMSD_UB>
10.476

$$$$
CHEMBL369481
 OpenBabel10172500443D

 34 34  0  0  1  0  0  0  0  0999 V2000
  140.0840  137.8790  152.6430 C   0  0  0  0  0  0  0  0  0  0  0  0
  140.4910  137.5980  151.3330 C   0  0  0  0  0  3  0  0  0  0  0  0
  141.8410  137.6840  150.9780 C   0  0  0  0  0  3  0  0  0  0  0  0
  142.8000  138.0620  151.9200 C   0  0  0  0  0  0  0  0  0  0  0  0
  142.4050  138.3790  153.2260 C   0  0  0  0  0  0  0  0  0  0  0  0
  141.0570  138.2420  153.5850 C   0  0  0  0  0  3  0  0  0  0  0  0
  143.2180  138.7990  154.2540 O   0  0  0  0  0  0  0  0  0  0  0  0
  142.6100  139.5810  155.2800 C   0  0  0  0  0  1  0  0  0  0  0  0
  138.6270  137.8300  153.0320 C   0  0  0  0  0  2  0  0  0  0  0  0
  136.6190  136.5760  152.3910 C   0  0  0  0  0  0  0  0  0  0  0  0
  136.2300  136.4540  153.5510 O   0  0  0  0  0  0  0  0  0  0  0  0
  137.7860  137.2040  152.0370 N   0  0  0  0  0  0  0  0  0  0  0  0
  138.0540  137.2300  151.0900 H   0  0  0  0  0  0  0  0  0  0  0  0
  135.8790  136.0050  151.1880 C   0  0  0  0  0  2  0  0  0  0  0  0
  135.8290  134.4790  151.2450 C   0  0  0  0  0  2  0  0  0  0  0  0
  134.5570  133.9550  151.9050 C   0  0  0  0  0  2  0  0  0  0  0  0
  133.6970  133.2320  150.8690 C   0  0  0  0  0  2  0  0  0  0  0  0
  132.6830  134.1700  150.2210 C   0  0  0  0  0  2  0  0  0  0  0  0
  132.9460  134.2980  148.7220 C   0  0  0  0  0  2  0  0  0  0  0  0
  132.6920  136.7010  149.4100 C   0  0  0  0  0  1  0  0  0  0  0  0
  133.1700  135.7550  148.3230 C   0  0  0  0  0  2  0  0  0  0  0  0
  144.1280  138.1440  151.6170 O   0  0  0  0  0  0  0  0  0  0  0  0
  144.5760  139.2470  150.8350 C   0  0  0  0  0  2  0  0  0  0  0  0
  145.5910  140.0180  151.6670 C   0  0  1  0  0  3  0  0  0  0  0  0
  144.9370  140.7620  152.7050 O   0  0  0  0  0  0  0  0  0  0  0  0
  144.5970  141.5940  152.3420 H   0  0  0  0  0  0  0  0  0  0  0  0
  146.5780  139.0350  152.2980 C   0  0  0  0  0  2  0  0  0  0  0  0
  146.3840  138.9050  153.7510 N   0  0  0  0  0  4  0  0  0  0  0  0
  145.8290  138.0680  153.9290 H   0  0  0  0  0  0  0  0  0  0  0  0
  145.9160  139.7560  154.0660 H   0  0  0  0  0  0  0  0  0  0  0  0
  147.6440  138.8000  154.5090 C   0  0  0  0  0  0  0  0  0  0  0  0
  148.5720  137.7230  153.9160 C   0  0  0  0  0  1  0  0  0  0  0  0
  148.3620  140.1670  154.4470 C   0  0  0  0  0  1  0  0  0  0  0  0
  147.3300  138.4780  155.9720 C   0  0  0  0  0  1  0  0  0  0  0  0
  1  9  1  0  0  0  0
  1  6  1  0  0  0  0
  2  1  2  0  0  0  0
  3  2  1  0  0  0  0
  3  4  2  0  0  0  0
  4  5  1  0  0  0  0
  5  6  2  0  0  0  0
  5  7  1  0  0  0  0
  7  8  1  0  0  0  0
 10 11  2  0  0  0  0
 12 10  1  0  0  0  0
 12  9  1  0  0  0  0
 13 12  1  0  0  0  0
 14 15  1  0  0  0  0
 14 10  1  0  0  0  0
 15 16  1  0  0  0  0
 17 16  1  0  0  0  0
 18 17  1  0  0  0  0
 19 18  1  0  0  0  0
 21 19  1  0  0  0  0
 21 20  1  0  0  0  0
 22  4  1  0  0  0  0
 23 22  1  0  0  0  0
 24 23  1  1  0  0  0
 24 27  1  0  0  0  0
 24 25  1  0  0  0  0
 26 25  1  0  0  0  0
 27 28  1  0  0  0  0
 28 29  1  0  0  0  0
 28 30  1  0  0  0  0
 28 31  1  0  0  0  0
 31 34  1  0  0  0  0
 32 31  1  0  0  0  0
 33 31  1  0  0  0  0
M  END
>  <MODEL>
7

>  <REMARK>
 VINA RESULT:    -6.891      2.202     10.821
 INTER + INTRA:         -14.677
 INTER:                 -12.390
 INTRA:                  -2.287
 UNBOUND:                -1.139
  Name = CHEMBL369481
  22 active torsions:
  status: ('A' for Active; 'I' for Inactive)
    1  A    between atoms: C_1  and  C_2
    2  A    between atoms: C_2  and  C_3
    3  A    between atoms: C_3  and  C_4
    4  A    between atoms: C_4  and  C_5
    5  A    between atoms: C_5  and  C_6
    6  A    between atoms: C_6  and  C_7
    7  A    between atoms: C_7  and  C_8
    8  A    between atoms: C_8  and  C_9
    9  A    between atoms: N_11  and  C_12
   10  A    between atoms: C_12  and  C_13
   11  A    between atoms: C_16  and  O_17
   12  A    between atoms: O_17  and  C_18
   13  A    between atoms: C_18  and  C_19
   14  A    between atoms: C_19  and  O_20
   15  A    between atoms: C_19  and  C_21
   16  A    between atoms: C_21  and  N_22
   17  A    between atoms: N_22  and  C_23
   18  A    between atoms: C_23  and  C_24
   19  A    between atoms: C_23  and  C_25
   20  A    between atoms: C_23  and  C_26
   21  A    between atoms: C_27  and  O_28
   22  A    between atoms: O_28  and  C_29
                            x       y       z     vdW  Elec       q    Type
                         _______ _______ _______ _____ _____    ______ ____

>  <TORSDO>
F 17

>  <SCORE>
-6.891

>  <RMSD_LB>
2.202

>  <RMSD_UB>
10.821

$$$$
CHEMBL369481
 OpenBabel10172500443D

 34 34  0  0  1  0  0  0  0  0999 V2000
  146.9310  137.4310  152.0580 C   0  0  0  0  0  0  0  0  0  0  0  0
  146.9330  136.4610  151.0470 C   0  0  0  0  0  3  0  0  0  0  0  0
  145.7340  136.0630  150.4460 C   0  0  0  0  0  3  0  0  0  0  0  0
  144.5180  136.6180  150.8540 C   0  0  0  0  0  0  0  0  0  0  0  0
  144.4960  137.5630  151.8870 C   0  0  0  0  0  0  0  0  0  0  0  0
  145.7080  137.9920  152.4480 C   0  0  0  0  0  3  0  0  0  0  0  0
  143.3850  138.1740  152.4230 O   0  0  0  0  0  0  0  0  0  0  0  0
  143.2340  138.1120  153.8390 C   0  0  0  0  0  1  0  0  0  0  0  0
  148.2120  137.8410  152.7430 C   0  0  0  0  0  2  0  0  0  0  0  0
  148.3730  139.9060  154.0580 C   0  0  0  0  0  0  0  0  0  0  0  0
  148.1800  139.3310  155.1280 O   0  0  0  0  0  0  0  0  0  0  0  0
  148.3800  139.2730  152.8400 N   0  0  0  0  0  0  0  0  0  0  0  0
  148.5020  139.8040  152.0200 H   0  0  0  0  0  0  0  0  0  0  0  0
  148.5870  141.4090  153.9320 C   0  0  0  0  0  2  0  0  0  0  0  0
  147.8270  141.9750  152.7330 C   0  0  0  0  0  2  0  0  0  0  0  0
  146.3530  142.2250  153.0330 C   0  0  0  0  0  2  0  0  0  0  0  0
  145.5840  142.4130  151.7250 C   0  0  0  0  0  2  0  0  0  0  0  0
  146.0190  141.4080  150.6630 C   0  0  0  0  0  2  0  0  0  0  0  0
  144.8060  140.7200  150.0400 C   0  0  0  0  0  2  0  0  0  0  0  0
  146.7140  139.5060  148.9430 C   0  0  0  0  0  1  0  0  0  0  0  0
  145.2220  139.7890  148.9030 C   0  0  0  0  0  2  0  0  0  0  0  0
  143.3290  136.2670  150.2840 O   0  0  0  0  0  0  0  0  0  0  0  0
  143.0070  136.8080  149.0070 C   0  0  0  0  0  2  0  0  0  0  0  0
  141.8660  137.7980  149.2030 C   0  0  1  0  0  3  0  0  0  0  0  0
  141.4150  138.3090  147.9400 O   0  0  0  0  0  0  0  0  0  0  0  0
  140.4530  138.4250  147.9640 H   0  0  0  0  0  0  0  0  0  0  0  0
  140.7030  137.0960  149.9060 C   0  0  0  0  0  2  0  0  0  0  0  0
  140.6980  137.3440  151.3560 N   0  0  0  0  0  4  0  0  0  0  0  0
  141.5140  137.9090  151.5900 H   0  0  0  0  0  0  0  0  0  0  0  0
  140.7130  136.4330  151.8150 H   0  0  0  0  0  0  0  0  0  0  0  0
  139.4920  138.0480  151.8320 C   0  0  0  0  0  0  0  0  0  0  0  0
  138.2050  137.3570  151.3440 C   0  0  0  0  0  1  0  0  0  0  0  0
  139.5070  138.0420  153.3780 C   0  0  0  0  0  1  0  0  0  0  0  0
  139.5280  139.4990  151.3470 C   0  0  0  0  0  1  0  0  0  0  0  0
  1  6  1  0  0  0  0
  1  9  1  0  0  0  0
  2  1  2  0  0  0  0
  3  4  2  0  0  0  0
  3  2  1  0  0  0  0
  4  5  1  0  0  0  0
  5  7  1  0  0  0  0
  5  6  2  0  0  0  0
  7  8  1  0  0  0  0
  9 12  1  0  0  0  0
 10 11  2  0  0  0  0
 12 10  1  0  0  0  0
 13 12  1  0  0  0  0
 14 10  1  0  0  0  0
 15 16  1  0  0  0  0
 15 14  1  0  0  0  0
 17 16  1  0  0  0  0
 18 17  1  0  0  0  0
 19 18  1  0  0  0  0
 21 20  1  0  0  0  0
 21 19  1  0  0  0  0
 22  4  1  0  0  0  0
 23 22  1  0  0  0  0
 24 23  1  6  0  0  0
 24 27  1  0  0  0  0
 25 26  1  0  0  0  0
 25 24  1  0  0  0  0
 27 28  1  0  0  0  0
 28 29  1  0  0  0  0
 28 30  1  0  0  0  0
 28 31  1  0  0  0  0
 31 33  1  0  0  0  0
 32 31  1  0  0  0  0
 34 31  1  0  0  0  0
M  END
>  <MODEL>
8

>  <REMARK>
 VINA RESULT:    -6.839      3.352      5.175
 INTER + INTRA:         -14.576
 INTER:                 -11.171
 INTRA:                  -3.405
 UNBOUND:                -1.139
  Name = CHEMBL369481
  22 active torsions:
  status: ('A' for Active; 'I' for Inactive)
    1  A    between atoms: C_1  and  C_2
    2  A    between atoms: C_2  and  C_3
    3  A    between atoms: C_3  and  C_4
    4  A    between atoms: C_4  and  C_5
    5  A    between atoms: C_5  and  C_6
    6  A    between atoms: C_6  and  C_7
    7  A    between atoms: C_7  and  C_8
    8  A    between atoms: C_8  and  C_9
    9  A    between atoms: N_11  and  C_12
   10  A    between atoms: C_12  and  C_13
   11  A    between atoms: C_16  and  O_17
   12  A    between atoms: O_17  and  C_18
   13  A    between atoms: C_18  and  C_19
   14  A    between atoms: C_19  and  O_20
   15  A    between atoms: C_19  and  C_21
   16  A    between atoms: C_21  and  N_22
   17  A    between atoms: N_22  and  C_23
   18  A    between atoms: C_23  and  C_24
   19  A    between atoms: C_23  and  C_25
   20  A    between atoms: C_23  and  C_26
   21  A    between atoms: C_27  and  O_28
   22  A    between atoms: O_28  and  C_29
                            x       y       z     vdW  Elec       q    Type
                         _______ _______ _______ _____ _____    ______ ____

>  <TORSDO>
F 17

>  <SCORE>
-6.839

>  <RMSD_LB>
3.352

>  <RMSD_UB>
5.175

$$$$
CHEMBL369481
 OpenBabel10172500443D

 34 34  0  0  1  0  0  0  0  0999 V2000
  140.6050  138.0980  153.2060 C   0  0  0  0  0  0  0  0  0  0  0  0
  141.7280  138.0980  154.0430 C   0  0  0  0  0  3  0  0  0  0  0  0
  142.9890  137.7660  153.5360 C   0  0  0  0  0  3  0  0  0  0  0  0
  143.1430  137.4170  152.1920 C   0  0  0  0  0  0  0  0  0  0  0  0
  142.0250  137.3790  151.3500 C   0  0  0  0  0  0  0  0  0  0  0  0
  140.7740  137.7620  151.8560 C   0  0  0  0  0  3  0  0  0  0  0  0
  142.0050  137.0250  150.0200 O   0  0  0  0  0  0  0  0  0  0  0  0
  140.7480  136.6330  149.4740 C   0  0  0  0  0  1  0  0  0  0  0  0
  139.2330  138.4150  153.7470 C   0  0  0  0  0  2  0  0  0  0  0  0
  137.8650  138.2260  155.7740 C   0  0  0  0  0  0  0  0  0  0  0  0
  136.9730  138.9480  155.3330 O   0  0  0  0  0  0  0  0  0  0  0  0
  139.0160  137.9290  155.0900 N   0  0  0  0  0  0  0  0  0  0  0  0
  139.7060  137.3730  155.5220 H   0  0  0  0  0  0  0  0  0  0  0  0
  137.8350  137.5960  157.1610 C   0  0  0  0  0  2  0  0  0  0  0  0
  136.6480  136.6440  157.3080 C   0  0  0  0  0  2  0  0  0  0  0  0
  136.5690  135.6210  156.1790 C   0  0  0  0  0  2  0  0  0  0  0  0
  135.1210  135.4760  155.7130 C   0  0  0  0  0  2  0  0  0  0  0  0
  135.0040  135.5540  154.1940 C   0  0  0  0  0  2  0  0  0  0  0  0
  134.9430  134.1550  153.5840 C   0  0  0  0  0  2  0  0  0  0  0  0
  135.0070  134.0610  151.0730 C   0  0  0  0  0  1  0  0  0  0  0  0
  135.8330  134.0530  152.3480 C   0  0  0  0  0  2  0  0  0  0  0  0
  144.3570  137.1000  151.6560 O   0  0  0  0  0  0  0  0  0  0  0  0
  145.1850  138.1590  151.1850 C   0  0  0  0  0  2  0  0  0  0  0  0
  146.1600  138.5100  152.3000 C   0  0  1  0  0  3  0  0  0  0  0  0
  146.7410  137.3230  152.8590 O   0  0  0  0  0  0  0  0  0  0  0  0
  146.9590  137.4780  153.7910 H   0  0  0  0  0  0  0  0  0  0  0  0
  147.2720  139.3980  151.7380 C   0  0  0  0  0  2  0  0  0  0  0  0
  146.7560  140.4130  150.8060 N   0  0  0  0  0  4  0  0  0  0  0  0
  145.7410  140.3220  150.7600 H   0  0  0  0  0  0  0  0  0  0  0  0
  147.2020  140.2440  149.9040 H   0  0  0  0  0  0  0  0  0  0  0  0
  147.0840  141.7960  151.1980 C   0  0  0  0  0  0  0  0  0  0  0  0
  146.2510  142.2530  152.4100 C   0  0  0  0  0  1  0  0  0  0  0  0
  148.5830  141.8500  151.5710 C   0  0  0  0  0  1  0  0  0  0  0  0
  146.8410  142.7300  150.0090 C   0  0  0  0  0  1  0  0  0  0  0  0
  1  9  1  0  0  0  0
  1  2  1  0  0  0  0
  3  2  2  0  0  0  0
  4  3  1  0  0  0  0
  5  6  1  0  0  0  0
  5  4  2  0  0  0  0
  6  1  2  0  0  0  0
  7  5  1  0  0  0  0
  8  7  1  0  0  0  0
  9 12  1  0  0  0  0
 10 14  1  0  0  0  0
 11 10  2  0  0  0  0
 12 13  1  0  0  0  0
 12 10  1  0  0  0  0
 14 15  1  0  0  0  0
 16 15  1  0  0  0  0
 17 16  1  0  0  0  0
 18 17  1  0  0  0  0
 19 18  1  0  0  0  0
 20 21  1  0  0  0  0
 21 19  1  0  0  0  0
 22  4  1  0  0  0  0
 23 22  1  0  0  0  0
 24 23  1  6  0  0  0
 24 25  1  0  0  0  0
 25 26  1  0  0  0  0
 27 24  1  0  0  0  0
 28 31  1  0  0  0  0
 28 27  1  0  0  0  0
 29 28  1  0  0  0  0
 30 28  1  0  0  0  0
 31 33  1  0  0  0  0
 31 32  1  0  0  0  0
 34 31  1  0  0  0  0
M  END
>  <MODEL>
9

>  <REMARK>
 VINA RESULT:    -6.828      2.082     10.397
 INTER + INTRA:         -14.553
 INTER:                 -13.414
 INTRA:                  -1.139
 UNBOUND:                -1.139
  Name = CHEMBL369481
  22 active torsions:
  status: ('A' for Active; 'I' for Inactive)
    1  A    between atoms: C_1  and  C_2
    2  A    between atoms: C_2  and  C_3
    3  A    between atoms: C_3  and  C_4
    4  A    between atoms: C_4  and  C_5
    5  A    between atoms: C_5  and  C_6
    6  A    between atoms: C_6  and  C_7
    7  A    between atoms: C_7  and  C_8
    8  A    between atoms: C_8  and  C_9
    9  A    between atoms: N_11  and  C_12
   10  A    between atoms: C_12  and  C_13
   11  A    between atoms: C_16  and  O_17
   12  A    between atoms: O_17  and  C_18
   13  A    between atoms: C_18  and  C_19
   14  A    between atoms: C_19  and  O_20
   15  A    between atoms: C_19  and  C_21
   16  A    between atoms: C_21  and  N_22
   17  A    between atoms: N_22  and  C_23
   18  A    between atoms: C_23  and  C_24
   19  A    between atoms: C_23  and  C_25
   20  A    between atoms: C_23  and  C_26
   21  A    between atoms: C_27  and  O_28
   22  A    between atoms: O_28  and  C_29
                            x       y       z     vdW  Elec       q    Type
                         _______ _______ _______ _____ _____    ______ ____

>  <TORSDO>
F 17

>  <SCORE>
-6.828

>  <RMSD_LB>
2.082

>  <RMSD_UB>
10.397

$$$$
