CHEMBL80415
 OpenBabel10172500523D

 24 25  0  0  0  0  0  0  0  0999 V2000
  135.3930  135.5160  154.4770 N   0  0  0  0  0  0  0  0  0  0  0  0
  134.0470  135.2420  154.4230 C   0  0  0  0  0  0  0  0  0  0  0  0
  133.2930  135.2920  155.3830 O   0  0  0  0  0  0  0  0  0  0  0  0
  135.9210  135.4800  153.6460 H   0  0  0  0  0  0  0  0  0  0  0  0
  133.5820  134.8620  153.0630 C   0  0  0  0  0  3  0  0  0  0  0  0
  134.0260  135.5200  151.9810 C   0  0  0  0  0  3  0  0  0  0  0  0
  133.6100  135.2140  150.6000 C   0  0  0  0  0  0  0  0  0  0  0  0
  133.3790  133.8980  150.1690 C   0  0  0  0  0  3  0  0  0  0  0  0
  132.9720  133.6310  148.8590 C   0  0  0  0  0  3  0  0  0  0  0  0
  132.7790  134.6800  147.9640 C   0  0  0  0  0  3  0  0  0  0  0  0
  132.9830  135.9920  148.3880 C   0  0  0  0  0  0  0  0  0  0  0  0
  132.7370  137.2870  147.2810 Cl  0  0  0  0  0  0  0  0  0  0  0  0
  133.3870  136.2630  149.6980 C   0  0  0  0  0  3  0  0  0  0  0  0
  136.0620  135.8560  155.7180 C   0  0  0  0  0  2  0  0  0  0  0  0
  138.7060  138.1230  154.1090 C   0  0  0  0  0  0  0  0  0  0  0  0
  137.5820  137.3050  154.2880 C   0  0  0  0  0  3  0  0  0  0  0  0
  137.3040  136.6980  155.5260 C   0  0  0  0  0  0  0  0  0  0  0  0
  138.1740  136.9440  156.5980 C   0  0  0  0  0  3  0  0  0  0  0  0
  139.3010  137.7570  156.4360 C   0  0  0  0  0  3  0  0  0  0  0  0
  139.5640  138.3360  155.1950 C   0  0  0  0  0  0  0  0  0  0  0  0
  138.8470  138.0020  151.7380 C   0  0  0  0  0  1  0  0  0  0  0  0
  139.0390  138.7450  152.9330 O   0  0  0  0  0  0  0  0  0  0  0  0
  140.6720  139.1270  155.0330 O   0  0  0  0  0  0  0  0  0  0  0  0
  140.7160  139.9620  155.4560 H   0  0  0  0  0  0  0  0  0  0  0  0
  1 14  1  0  0  0  0
  2  1  1  0  0  0  0
  2  3  2  0  0  0  0
  4  1  1  0  0  0  0
  5  2  1  0  0  0  0
  6  5  2  0  0  0  0
  7  6  1  0  0  0  0
  8  7  1  0  0  0  0
  9  8  2  0  0  0  0
 10 11  2  0  0  0  0
 10  9  1  0  0  0  0
 11 13  1  0  0  0  0
 12 11  1  0  0  0  0
 13  7  2  0  0  0  0
 15 16  2  0  0  0  0
 15 20  1  0  0  0  0
 16 17  1  0  0  0  0
 17 14  1  0  0  0  0
 17 18  2  0  0  0  0
 19 18  1  0  0  0  0
 20 19  2  0  0  0  0
 21 22  1  0  0  0  0
 22 15  1  0  0  0  0
 23 20  1  0  0  0  0
 23 24  1  0  0  0  0
M  END
>  <MODEL>
1

>  <REMARK>
 VINA RESULT:    -7.617      0.000      0.000
 INTER + INTRA:         -10.508
 INTER:                  -9.929
 INTRA:                  -0.578
 UNBOUND:                -0.442
  Name = CHEMBL80415
  7 active torsions:
  status: ('A' for Active; 'I' for Inactive)
    1  A    between atoms: C_1  and  O_2
    2  A    between atoms: O_2  and  C_3
    3  A    between atoms: C_5  and  C_6
    4  A    between atoms: C_6  and  N_7
    5  A    between atoms: C_8  and  C_10
    6  A    between atoms: C_11  and  C_12
    7  A    between atoms: C_21  and  O_22
                            x       y       z     vdW  Elec       q    Type
                         _______ _______ _______ _____ _____    ______ ____

>  <TORSDO>
F 6

>  <SCORE>
-7.617

>  <RMSD_LB>
0.000

>  <RMSD_UB>
0.000

$$$$
CHEMBL80415
 OpenBabel10172500523D

 24 25  0  0  0  0  0  0  0  0999 V2000
  134.7720  134.7540  154.9240 N   0  0  0  0  0  0  0  0  0  0  0  0
  134.4600  133.6940  154.1070 C   0  0  0  0  0  0  0  0  0  0  0  0
  134.1590  132.5790  154.5060 O   0  0  0  0  0  0  0  0  0  0  0  0
  134.9740  135.6270  154.5170 H   0  0  0  0  0  0  0  0  0  0  0  0
  134.5330  134.0300  152.6600 C   0  0  0  0  0  3  0  0  0  0  0  0
  133.5870  133.6010  151.8110 C   0  0  0  0  0  3  0  0  0  0  0  0
  133.5890  133.8820  150.3630 C   0  0  0  0  0  0  0  0  0  0  0  0
  133.9830  132.9190  149.4210 C   0  0  0  0  0  3  0  0  0  0  0  0
  133.9650  133.2020  148.0530 C   0  0  0  0  0  3  0  0  0  0  0  0
  133.5420  134.4510  147.6070 C   0  0  0  0  0  3  0  0  0  0  0  0
  133.1280  135.4070  148.5320 C   0  0  0  0  0  0  0  0  0  0  0  0
  132.6000  136.9490  147.9770 Cl  0  0  0  0  0  0  0  0  0  0  0  0
  133.1410  135.1270  149.9020 C   0  0  0  0  0  3  0  0  0  0  0  0
  134.8120  134.6280  156.3680 C   0  0  0  0  0  2  0  0  0  0  0  0
  137.1550  137.6160  156.9160 C   0  0  0  0  0  0  0  0  0  0  0  0
  136.3400  136.6570  156.2990 C   0  0  0  0  0  3  0  0  0  0  0  0
  135.7280  135.6290  157.0390 C   0  0  0  0  0  0  0  0  0  0  0  0
  135.9350  135.5910  158.4250 C   0  0  0  0  0  3  0  0  0  0  0  0
  136.7470  136.5400  159.0560 C   0  0  0  0  0  3  0  0  0  0  0  0
  137.3560  137.5420  158.3000 C   0  0  0  0  0  0  0  0  0  0  0  0
  138.1050  138.4300  154.8930 C   0  0  0  0  0  1  0  0  0  0  0  0
  137.7830  138.6440  156.2600 O   0  0  0  0  0  0  0  0  0  0  0  0
  138.1560  138.4680  158.9150 O   0  0  0  0  0  0  0  0  0  0  0  0
  138.2420  138.4670  159.8490 H   0  0  0  0  0  0  0  0  0  0  0  0
  1 14  1  0  0  0  0
  2  3  2  0  0  0  0
  2  1  1  0  0  0  0
  4  1  1  0  0  0  0
  5  2  1  0  0  0  0
  6  5  2  0  0  0  0
  7  6  1  0  0  0  0
  8  7  2  0  0  0  0
  9  8  1  0  0  0  0
 10  9  2  0  0  0  0
 10 11  1  0  0  0  0
 11 13  2  0  0  0  0
 12 11  1  0  0  0  0
 13  7  1  0  0  0  0
 14 17  1  0  0  0  0
 15 20  1  0  0  0  0
 16 15  2  0  0  0  0
 16 17  1  0  0  0  0
 17 18  2  0  0  0  0
 18 19  1  0  0  0  0
 20 23  1  0  0  0  0
 20 19  2  0  0  0  0
 21 22  1  0  0  0  0
 22 15  1  0  0  0  0
 23 24  1  0  0  0  0
M  END
>  <MODEL>
2

>  <REMARK>
 VINA RESULT:    -7.609      1.956      2.508
 INTER + INTRA:         -10.498
 INTER:                 -10.078
 INTRA:                  -0.420
 UNBOUND:                -0.442
  Name = CHEMBL80415
  7 active torsions:
  status: ('A' for Active; 'I' for Inactive)
    1  A    between atoms: C_1  and  O_2
    2  A    between atoms: O_2  and  C_3
    3  A    between atoms: C_5  and  C_6
    4  A    between atoms: C_6  and  N_7
    5  A    between atoms: C_8  and  C_10
    6  A    between atoms: C_11  and  C_12
    7  A    between atoms: C_21  and  O_22
                            x       y       z     vdW  Elec       q    Type
                         _______ _______ _______ _____ _____    ______ ____

>  <TORSDO>
F 6

>  <SCORE>
-7.609

>  <RMSD_LB>
1.956

>  <RMSD_UB>
2.508

$$$$
CHEMBL80415
 OpenBabel10172500523D

 24 25  0  0  0  0  0  0  0  0999 V2000
  133.2360  134.1850  151.5730 N   0  0  0  0  0  0  0  0  0  0  0  0
  133.5440  135.5020  151.8190 C   0  0  0  0  0  0  0  0  0  0  0  0
  133.1580  136.4400  151.1380 O   0  0  0  0  0  0  0  0  0  0  0  0
  133.5660  133.4940  152.1920 H   0  0  0  0  0  0  0  0  0  0  0  0
  134.4170  135.6850  153.0080 C   0  0  0  0  0  3  0  0  0  0  0  0
  134.1190  135.0870  154.1730 C   0  0  0  0  0  3  0  0  0  0  0  0
  134.9240  135.2240  155.4000 C   0  0  0  0  0  0  0  0  0  0  0  0
  134.4780  134.7370  156.6390 C   0  0  0  0  0  3  0  0  0  0  0  0
  135.2630  134.8650  157.7870 C   0  0  0  0  0  3  0  0  0  0  0  0
  136.5130  135.4750  157.7100 C   0  0  0  0  0  3  0  0  0  0  0  0
  136.9740  135.9420  156.4820 C   0  0  0  0  0  0  0  0  0  0  0  0
  138.5230  136.6900  156.3890 Cl  0  0  0  0  0  0  0  0  0  0  0  0
  136.1940  135.8130  155.3290 C   0  0  0  0  0  3  0  0  0  0  0  0
  132.4390  133.7790  150.4310 C   0  0  0  0  0  2  0  0  0  0  0  0
  133.9090  134.5560  146.9730 C   0  0  0  0  0  0  0  0  0  0  0  0
  133.1440  134.6360  148.1460 C   0  0  0  0  0  3  0  0  0  0  0  0
  133.2350  133.6560  149.1500 C   0  0  0  0  0  0  0  0  0  0  0  0
  134.1310  132.5930  148.9650 C   0  0  0  0  0  3  0  0  0  0  0  0
  134.9000  132.4980  147.8000 C   0  0  0  0  0  3  0  0  0  0  0  0
  134.7820  133.4740  146.8110 C   0  0  0  0  0  0  0  0  0  0  0  0
  133.5330  136.8070  146.3030 C   0  0  0  0  0  1  0  0  0  0  0  0
  133.8720  135.4720  145.9530 O   0  0  0  0  0  0  0  0  0  0  0  0
  135.5300  133.3780  145.6660 O   0  0  0  0  0  0  0  0  0  0  0  0
  135.9860  132.5830  145.4700 H   0  0  0  0  0  0  0  0  0  0  0  0
  1  2  1  0  0  0  0
  1  4  1  0  0  0  0
  2  5  1  0  0  0  0
  3  2  2  0  0  0  0
  5  6  2  0  0  0  0
  6  7  1  0  0  0  0
  7  8  1  0  0  0  0
  8  9  2  0  0  0  0
 10  9  1  0  0  0  0
 11 10  2  0  0  0  0
 12 11  1  0  0  0  0
 13  7  2  0  0  0  0
 13 11  1  0  0  0  0
 14  1  1  0  0  0  0
 15 16  1  0  0  0  0
 16 17  2  0  0  0  0
 17 14  1  0  0  0  0
 18 17  1  0  0  0  0
 19 18  2  0  0  0  0
 20 15  2  0  0  0  0
 20 19  1  0  0  0  0
 22 21  1  0  0  0  0
 22 15  1  0  0  0  0
 23 20  1  0  0  0  0
 24 23  1  0  0  0  0
M  END
>  <MODEL>
3

>  <REMARK>
 VINA RESULT:    -7.517      4.129      8.084
 INTER + INTRA:         -10.376
 INTER:                  -9.861
 INTRA:                  -0.515
 UNBOUND:                -0.442
  Name = CHEMBL80415
  7 active torsions:
  status: ('A' for Active; 'I' for Inactive)
    1  A    between atoms: C_1  and  O_2
    2  A    between atoms: O_2  and  C_3
    3  A    between atoms: C_5  and  C_6
    4  A    between atoms: C_6  and  N_7
    5  A    between atoms: C_8  and  C_10
    6  A    between atoms: C_11  and  C_12
    7  A    between atoms: C_21  and  O_22
                            x       y       z     vdW  Elec       q    Type
                         _______ _______ _______ _____ _____    ______ ____

>  <TORSDO>
F 6

>  <SCORE>
-7.517

>  <RMSD_LB>
4.129

>  <RMSD_UB>
8.084

$$$$
CHEMBL80415
 OpenBabel10172500523D

 24 25  0  0  0  0  0  0  0  0999 V2000
  138.7830  137.5960  154.5120 N   0  0  0  0  0  0  0  0  0  0  0  0
  139.3140  138.7260  153.9350 C   0  0  0  0  0  0  0  0  0  0  0  0
  138.8230  139.8410  154.0210 O   0  0  0  0  0  0  0  0  0  0  0  0
  139.2620  136.7420  154.4170 H   0  0  0  0  0  0  0  0  0  0  0  0
  140.5620  138.4600  153.1720 C   0  0  0  0  0  3  0  0  0  0  0  0
  141.5800  137.7940  153.7400 C   0  0  0  0  0  3  0  0  0  0  0  0
  142.8540  137.4970  153.0580 C   0  0  0  0  0  0  0  0  0  0  0  0
  142.9600  137.4790  151.6580 C   0  0  0  0  0  3  0  0  0  0  0  0
  144.1790  137.2090  151.0330 C   0  0  0  0  0  3  0  0  0  0  0  0
  145.3150  136.9620  151.8010 C   0  0  0  0  0  3  0  0  0  0  0  0
  145.2250  136.9990  153.1910 C   0  0  0  0  0  0  0  0  0  0  0  0
  146.6320  136.7000  154.1370 Cl  0  0  0  0  0  0  0  0  0  0  0  0
  144.0080  137.2730  153.8200 C   0  0  0  0  0  3  0  0  0  0  0  0
  137.5390  137.6230  155.2580 C   0  0  0  0  0  2  0  0  0  0  0  0
  134.9020  134.8540  155.5660 C   0  0  0  0  0  0  0  0  0  0  0  0
  135.8130  135.8700  155.8890 C   0  0  0  0  0  3  0  0  0  0  0  0
  136.5940  136.4960  154.9020 C   0  0  0  0  0  0  0  0  0  0  0  0
  136.4300  136.0960  153.5680 C   0  0  0  0  0  3  0  0  0  0  0  0
  135.5250  135.0840  153.2290 C   0  0  0  0  0  3  0  0  0  0  0  0
  134.7730  134.4660  154.2270 C   0  0  0  0  0  0  0  0  0  0  0  0
  134.1170  134.6940  157.8050 C   0  0  0  0  0  1  0  0  0  0  0  0
  134.1100  134.1990  156.4740 O   0  0  0  0  0  0  0  0  0  0  0  0
  133.8910  133.4690  153.8970 O   0  0  0  0  0  0  0  0  0  0  0  0
  133.3520  133.5540  153.1350 H   0  0  0  0  0  0  0  0  0  0  0  0
  1 14  1  0  0  0  0
  2  3  2  0  0  0  0
  2  1  1  0  0  0  0
  4  1  1  0  0  0  0
  5  6  2  0  0  0  0
  5  2  1  0  0  0  0
  7  6  1  0  0  0  0
  7 13  1  0  0  0  0
  8  7  2  0  0  0  0
  9  8  1  0  0  0  0
  9 10  2  0  0  0  0
 10 11  1  0  0  0  0
 11 13  2  0  0  0  0
 11 12  1  0  0  0  0
 15 16  1  0  0  0  0
 15 22  1  0  0  0  0
 17 14  1  0  0  0  0
 17 16  2  0  0  0  0
 18 17  1  0  0  0  0
 19 18  2  0  0  0  0
 19 20  1  0  0  0  0
 20 15  2  0  0  0  0
 22 21  1  0  0  0  0
 23 20  1  0  0  0  0
 24 23  1  0  0  0  0
M  END
>  <MODEL>
4

>  <REMARK>
 VINA RESULT:    -7.514      4.610      8.626
 INTER + INTRA:         -10.373
 INTER:                  -9.894
 INTRA:                  -0.479
 UNBOUND:                -0.442
  Name = CHEMBL80415
  7 active torsions:
  status: ('A' for Active; 'I' for Inactive)
    1  A    between atoms: C_1  and  O_2
    2  A    between atoms: O_2  and  C_3
    3  A    between atoms: C_5  and  C_6
    4  A    between atoms: C_6  and  N_7
    5  A    between atoms: C_8  and  C_10
    6  A    between atoms: C_11  and  C_12
    7  A    between atoms: C_21  and  O_22
                            x       y       z     vdW  Elec       q    Type
                         _______ _______ _______ _____ _____    ______ ____

>  <TORSDO>
F 6

>  <SCORE>
-7.514

>  <RMSD_LB>
4.610

>  <RMSD_UB>
8.626

$$$$
CHEMBL80415
 OpenBabel10172500523D

 24 25  0  0  0  0  0  0  0  0999 V2000
  143.0550  139.4920  152.3300 N   0  0  0  0  0  0  0  0  0  0  0  0
  142.5700  138.2850  151.8840 C   0  0  0  0  0  0  0  0  0  0  0  0
  142.9780  137.7020  150.8910 O   0  0  0  0  0  0  0  0  0  0  0  0
  142.6870  139.8770  153.1590 H   0  0  0  0  0  0  0  0  0  0  0  0
  141.4750  137.7460  152.7320 C   0  0  0  0  0  3  0  0  0  0  0  0
  140.3720  138.4740  152.9670 C   0  0  0  0  0  3  0  0  0  0  0  0
  139.2450  138.0190  153.8020 C   0  0  0  0  0  0  0  0  0  0  0  0
  138.0900  137.4500  153.2440 C   0  0  0  0  0  3  0  0  0  0  0  0
  137.0390  137.0130  154.0550 C   0  0  0  0  0  3  0  0  0  0  0  0
  137.1350  137.1300  155.4390 C   0  0  0  0  0  3  0  0  0  0  0  0
  138.2860  137.6740  156.0050 C   0  0  0  0  0  0  0  0  0  0  0  0
  138.4040  137.8120  157.7170 Cl  0  0  0  0  0  0  0  0  0  0  0  0
  139.3410  138.1090  155.1970 C   0  0  0  0  0  3  0  0  0  0  0  0
  144.0900  140.2180  151.6200 C   0  0  0  0  0  2  0  0  0  0  0  0
  146.8800  140.1420  154.2520 C   0  0  0  0  0  0  0  0  0  0  0  0
  145.7840  139.7720  153.4600 C   0  0  0  0  0  3  0  0  0  0  0  0
  145.2430  140.6470  152.5010 C   0  0  0  0  0  0  0  0  0  0  0  0
  145.8380  141.9060  152.3360 C   0  0  0  0  0  3  0  0  0  0  0  0
  146.9320  142.2900  153.1190 C   0  0  0  0  0  3  0  0  0  0  0  0
  147.4420  141.4120  154.0750 C   0  0  0  0  0  0  0  0  0  0  0  0
  147.4680  137.9460  154.9500 C   0  0  0  0  0  1  0  0  0  0  0  0
  147.4590  139.3430  155.2050 O   0  0  0  0  0  0  0  0  0  0  0  0
  148.5090  141.7900  154.8470 O   0  0  0  0  0  0  0  0  0  0  0  0
  148.8870  141.1830  155.4540 H   0  0  0  0  0  0  0  0  0  0  0  0
  1  4  1  0  0  0  0
  2  1  1  0  0  0  0
  2  5  1  0  0  0  0
  3  2  2  0  0  0  0
  5  6  2  0  0  0  0
  6  7  1  0  0  0  0
  7 13  1  0  0  0  0
  8  7  2  0  0  0  0
  8  9  1  0  0  0  0
  9 10  2  0  0  0  0
 10 11  1  0  0  0  0
 11 12  1  0  0  0  0
 13 11  2  0  0  0  0
 14  1  1  0  0  0  0
 14 17  1  0  0  0  0
 15 22  1  0  0  0  0
 16 15  2  0  0  0  0
 17 16  1  0  0  0  0
 18 17  2  0  0  0  0
 18 19  1  0  0  0  0
 19 20  2  0  0  0  0
 20 15  1  0  0  0  0
 20 23  1  0  0  0  0
 21 22  1  0  0  0  0
 23 24  1  0  0  0  0
M  END
>  <MODEL>
5

>  <REMARK>
 VINA RESULT:    -7.241      6.157      8.954
 INTER + INTRA:         -10.012
 INTER:                  -9.528
 INTRA:                  -0.483
 UNBOUND:                -0.442
  Name = CHEMBL80415
  7 active torsions:
  status: ('A' for Active; 'I' for Inactive)
    1  A    between atoms: C_1  and  O_2
    2  A    between atoms: O_2  and  C_3
    3  A    between atoms: C_5  and  C_6
    4  A    between atoms: C_6  and  N_7
    5  A    between atoms: C_8  and  C_10
    6  A    between atoms: C_11  and  C_12
    7  A    between atoms: C_21  and  O_22
                            x       y       z     vdW  Elec       q    Type
                         _______ _______ _______ _____ _____    ______ ____

>  <TORSDO>
F 6

>  <SCORE>
-7.241

>  <RMSD_LB>
6.157

>  <RMSD_UB>
8.954

$$$$
CHEMBL80415
 OpenBabel10172500523D

 24 25  0  0  0  0  0  0  0  0999 V2000
  138.6400  137.5320  155.3530 N   0  0  0  0  0  0  0  0  0  0  0  0
  139.2980  138.4340  154.5500 C   0  0  0  0  0  0  0  0  0  0  0  0
  139.0230  139.6220  154.4770 O   0  0  0  0  0  0  0  0  0  0  0  0
  138.9480  136.5980  155.3720 H   0  0  0  0  0  0  0  0  0  0  0  0
  140.3910  137.8180  153.7530 C   0  0  0  0  0  3  0  0  0  0  0  0
  140.5190  138.0900  152.4450 C   0  0  0  0  0  3  0  0  0  0  0  0
  141.5670  137.5150  151.5810 C   0  0  0  0  0  0  0  0  0  0  0  0
  142.9190  137.5100  151.9580 C   0  0  0  0  0  3  0  0  0  0  0  0
  143.8940  136.9480  151.1300 C   0  0  0  0  0  3  0  0  0  0  0  0
  143.5280  136.3730  149.9150 C   0  0  0  0  0  3  0  0  0  0  0  0
  142.1850  136.3540  149.5420 C   0  0  0  0  0  0  0  0  0  0  0  0
  141.7350  135.6360  148.0430 Cl  0  0  0  0  0  0  0  0  0  0  0  0
  141.2060  136.9110  150.3690 C   0  0  0  0  0  3  0  0  0  0  0  0
  137.5080  137.9140  156.1740 C   0  0  0  0  0  2  0  0  0  0  0  0
  134.8730  135.2250  155.4350 C   0  0  0  0  0  0  0  0  0  0  0  0
  135.7800  136.2830  155.2770 C   0  0  0  0  0  3  0  0  0  0  0  0
  136.4980  136.8040  156.3670 C   0  0  0  0  0  0  0  0  0  0  0  0
  136.3030  136.2270  157.6310 C   0  0  0  0  0  3  0  0  0  0  0  0
  135.4020  135.1710  157.8060 C   0  0  0  0  0  3  0  0  0  0  0  0
  134.6890  134.6810  156.7120 C   0  0  0  0  0  0  0  0  0  0  0  0
  133.9400  135.4640  153.2610 C   0  0  0  0  0  1  0  0  0  0  0  0
  134.1390  134.6670  154.4200 O   0  0  0  0  0  0  0  0  0  0  0  0
  133.8010  133.6510  156.8840 O   0  0  0  0  0  0  0  0  0  0  0  0
  132.8890  133.8340  157.0010 H   0  0  0  0  0  0  0  0  0  0  0  0
  1  4  1  0  0  0  0
  1 14  1  0  0  0  0
  2  1  1  0  0  0  0
  3  2  2  0  0  0  0
  5  2  1  0  0  0  0
  6  5  2  0  0  0  0
  7  8  1  0  0  0  0
  7  6  1  0  0  0  0
  9  8  2  0  0  0  0
 10  9  1  0  0  0  0
 11 10  2  0  0  0  0
 11 13  1  0  0  0  0
 12 11  1  0  0  0  0
 13  7  2  0  0  0  0
 14 17  1  0  0  0  0
 15 20  1  0  0  0  0
 16 15  2  0  0  0  0
 16 17  1  0  0  0  0
 17 18  2  0  0  0  0
 18 19  1  0  0  0  0
 20 23  1  0  0  0  0
 20 19  2  0  0  0  0
 21 22  1  0  0  0  0
 22 15  1  0  0  0  0
 23 24  1  0  0  0  0
M  END
>  <MODEL>
6

>  <REMARK>
 VINA RESULT:    -7.195      3.320      7.197
 INTER + INTRA:          -9.950
 INTER:                  -9.525
 INTRA:                  -0.425
 UNBOUND:                -0.442
  Name = CHEMBL80415
  7 active torsions:
  status: ('A' for Active; 'I' for Inactive)
    1  A    between atoms: C_1  and  O_2
    2  A    between atoms: O_2  and  C_3
    3  A    between atoms: C_5  and  C_6
    4  A    between atoms: C_6  and  N_7
    5  A    between atoms: C_8  and  C_10
    6  A    between atoms: C_11  and  C_12
    7  A    between atoms: C_21  and  O_22
                            x       y       z     vdW  Elec       q    Type
                         _______ _______ _______ _____ _____    ______ ____

>  <TORSDO>
F 6

>  <SCORE>
-7.195

>  <RMSD_LB>
3.320

>  <RMSD_UB>
7.197

$$$$
CHEMBL80415
 OpenBabel10172500523D

 24 25  0  0  0  0  0  0  0  0999 V2000
  138.8650  137.4840  155.8340 N   0  0  0  0  0  0  0  0  0  0  0  0
  139.0580  138.3150  154.7560 C   0  0  0  0  0  0  0  0  0  0  0  0
  138.4280  139.3430  154.5550 O   0  0  0  0  0  0  0  0  0  0  0  0
  139.4390  136.6900  155.9330 H   0  0  0  0  0  0  0  0  0  0  0  0
  140.1170  137.8350  153.8300 C   0  0  0  0  0  3  0  0  0  0  0  0
  141.4110  138.0850  154.0840 C   0  0  0  0  0  3  0  0  0  0  0  0
  142.5210  137.6530  153.2140 C   0  0  0  0  0  0  0  0  0  0  0  0
  142.3430  137.4280  151.8400 C   0  0  0  0  0  3  0  0  0  0  0  0
  143.4120  137.0330  151.0320 C   0  0  0  0  0  3  0  0  0  0  0  0
  144.6780  136.8650  151.5870 C   0  0  0  0  0  3  0  0  0  0  0  0
  144.8700  137.1070  152.9450 C   0  0  0  0  0  0  0  0  0  0  0  0
  146.4390  136.9060  153.6270 Cl  0  0  0  0  0  0  0  0  0  0  0  0
  143.8050  137.5070  153.7570 C   0  0  0  0  0  3  0  0  0  0  0  0
  137.8450  137.7400  156.8320 C   0  0  0  0  0  2  0  0  0  0  0  0
  135.1670  135.2610  155.6450 C   0  0  0  0  0  0  0  0  0  0  0  0
  136.1620  136.2500  155.6480 C   0  0  0  0  0  3  0  0  0  0  0  0
  136.7390  136.7070  156.8460 C   0  0  0  0  0  0  0  0  0  0  0  0
  136.3110  136.1350  158.0530 C   0  0  0  0  0  3  0  0  0  0  0  0
  135.3200  135.1480  158.0670 C   0  0  0  0  0  3  0  0  0  0  0  0
  134.7500  134.7220  156.8680 C   0  0  0  0  0  0  0  0  0  0  0  0
  134.0650  135.7230  153.5890 C   0  0  0  0  0  1  0  0  0  0  0  0
  134.5600  134.7690  154.5190 O   0  0  0  0  0  0  0  0  0  0  0  0
  133.7730  133.7600  156.8810 O   0  0  0  0  0  0  0  0  0  0  0  0
  134.0020  132.8620  157.0210 H   0  0  0  0  0  0  0  0  0  0  0  0
  1  4  1  0  0  0  0
  1 14  1  0  0  0  0
  2  1  1  0  0  0  0
  3  2  2  0  0  0  0
  5  6  2  0  0  0  0
  5  2  1  0  0  0  0
  7 13  1  0  0  0  0
  7  6  1  0  0  0  0
  8  7  2  0  0  0  0
  9 10  2  0  0  0  0
  9  8  1  0  0  0  0
 10 11  1  0  0  0  0
 11 12  1  0  0  0  0
 11 13  2  0  0  0  0
 14 17  1  0  0  0  0
 15 16  2  0  0  0  0
 15 20  1  0  0  0  0
 16 17  1  0  0  0  0
 17 18  2  0  0  0  0
 18 19  1  0  0  0  0
 20 23  1  0  0  0  0
 20 19  2  0  0  0  0
 21 22  1  0  0  0  0
 22 15  1  0  0  0  0
 23 24  1  0  0  0  0
M  END
>  <MODEL>
7

>  <REMARK>
 VINA RESULT:    -7.178      4.392      8.153
 INTER + INTRA:          -9.929
 INTER:                  -9.430
 INTRA:                  -0.499
 UNBOUND:                -0.442
  Name = CHEMBL80415
  7 active torsions:
  status: ('A' for Active; 'I' for Inactive)
    1  A    between atoms: C_1  and  O_2
    2  A    between atoms: O_2  and  C_3
    3  A    between atoms: C_5  and  C_6
    4  A    between atoms: C_6  and  N_7
    5  A    between atoms: C_8  and  C_10
    6  A    between atoms: C_11  and  C_12
    7  A    between atoms: C_21  and  O_22
                            x       y       z     vdW  Elec       q    Type
                         _______ _______ _______ _____ _____    ______ ____

>  <TORSDO>
F 6

>  <SCORE>
-7.178

>  <RMSD_LB>
4.392

>  <RMSD_UB>
8.153

$$$$
CHEMBL80415
 OpenBabel10172500523D

 24 25  0  0  0  0  0  0  0  0999 V2000
  141.2990  138.9420  152.3650 N   0  0  0  0  0  0  0  0  0  0  0  0
  142.3460  138.1650  151.9290 C   0  0  0  0  0  0  0  0  0  0  0  0
  142.2320  137.0190  151.5210 O   0  0  0  0  0  0  0  0  0  0  0  0
  141.4780  139.8670  152.6500 H   0  0  0  0  0  0  0  0  0  0  0  0
  143.6590  138.8560  152.0100 C   0  0  0  0  0  3  0  0  0  0  0  0
  143.8280  140.0690  151.4600 C   0  0  0  0  0  3  0  0  0  0  0  0
  145.0980  140.8180  151.4880 C   0  0  0  0  0  0  0  0  0  0  0  0
  145.6360  141.4100  150.3340 C   0  0  0  0  0  3  0  0  0  0  0  0
  146.8340  142.1270  150.3850 C   0  0  0  0  0  3  0  0  0  0  0  0
  147.5070  142.2700  151.5960 C   0  0  0  0  0  3  0  0  0  0  0  0
  146.9710  141.7050  152.7510 C   0  0  0  0  0  0  0  0  0  0  0  0
  147.8020  141.8900  154.2470 Cl  0  0  0  0  0  0  0  0  0  0  0  0
  145.7700  140.9910  152.7050 C   0  0  0  0  0  3  0  0  0  0  0  0
  139.9380  138.4430  152.4190 C   0  0  0  0  0  2  0  0  0  0  0  0
  137.5970  137.7080  155.3680 C   0  0  0  0  0  0  0  0  0  0  0  0
  138.0700  137.9710  154.0750 C   0  0  0  0  0  3  0  0  0  0  0  0
  139.4340  138.2070  153.8260 C   0  0  0  0  0  0  0  0  0  0  0  0
  140.3270  138.1540  154.9060 C   0  0  0  0  0  3  0  0  0  0  0  0
  139.8710  137.8930  156.2020 C   0  0  0  0  0  3  0  0  0  0  0  0
  138.5120  137.6780  156.4270 C   0  0  0  0  0  0  0  0  0  0  0  0
  135.7190  136.2570  155.2080 C   0  0  0  0  0  1  0  0  0  0  0  0
  136.2840  137.4710  155.6850 O   0  0  0  0  0  0  0  0  0  0  0  0
  138.0620  137.4300  157.6980 O   0  0  0  0  0  0  0  0  0  0  0  0
  138.6760  137.3100  158.3970 H   0  0  0  0  0  0  0  0  0  0  0  0
  1 14  1  0  0  0  0
  1  4  1  0  0  0  0
  2  5  1  0  0  0  0
  2  1  1  0  0  0  0
  3  2  2  0  0  0  0
  6  7  1  0  0  0  0
  6  5  2  0  0  0  0
  7 13  1  0  0  0  0
  8  9  1  0  0  0  0
  8  7  2  0  0  0  0
  9 10  2  0  0  0  0
 10 11  1  0  0  0  0
 11 12  1  0  0  0  0
 13 11  2  0  0  0  0
 14 17  1  0  0  0  0
 15 22  1  0  0  0  0
 15 20  1  0  0  0  0
 16 15  2  0  0  0  0
 17 16  1  0  0  0  0
 17 18  2  0  0  0  0
 18 19  1  0  0  0  0
 19 20  2  0  0  0  0
 20 23  1  0  0  0  0
 21 22  1  0  0  0  0
 23 24  1  0  0  0  0
M  END
>  <MODEL>
8

>  <REMARK>
 VINA RESULT:    -7.091      6.289     10.088
 INTER + INTRA:          -9.814
 INTER:                  -9.320
 INTRA:                  -0.494
 UNBOUND:                -0.442
  Name = CHEMBL80415
  7 active torsions:
  status: ('A' for Active; 'I' for Inactive)
    1  A    between atoms: C_1  and  O_2
    2  A    between atoms: O_2  and  C_3
    3  A    between atoms: C_5  and  C_6
    4  A    between atoms: C_6  and  N_7
    5  A    between atoms: C_8  and  C_10
    6  A    between atoms: C_11  and  C_12
    7  A    between atoms: C_21  and  O_22
                            x       y       z     vdW  Elec       q    Type
                         _______ _______ _______ _____ _____    ______ ____

>  <TORSDO>
F 6

>  <SCORE>
-7.091

>  <RMSD_LB>
6.289

>  <RMSD_UB>
10.088

$$$$
CHEMBL80415
 OpenBabel10172500523D

 24 25  0  0  0  0  0  0  0  0999 V2000
  134.5950  132.9620  147.3610 N   0  0  0  0  0  0  0  0  0  0  0  0
  135.4930  132.1960  146.6570 C   0  0  0  0  0  0  0  0  0  0  0  0
  135.8360  131.0670  146.9750 O   0  0  0  0  0  0  0  0  0  0  0  0
  134.3520  133.8510  147.0150 H   0  0  0  0  0  0  0  0  0  0  0  0
  136.0280  132.8820  145.4520 C   0  0  0  0  0  3  0  0  0  0  0  0
  136.3580  132.1810  144.3560 C   0  0  0  0  0  3  0  0  0  0  0  0
  136.9030  132.7810  143.1250 C   0  0  0  0  0  0  0  0  0  0  0  0
  137.7090  132.0520  142.2370 C   0  0  0  0  0  3  0  0  0  0  0  0
  138.2040  132.6370  141.0690 C   0  0  0  0  0  3  0  0  0  0  0  0
  137.8900  133.9590  140.7670 C   0  0  0  0  0  3  0  0  0  0  0  0
  137.0720  134.6850  141.6300 C   0  0  0  0  0  0  0  0  0  0  0  0
  136.6800  136.3190  141.2500 Cl  0  0  0  0  0  0  0  0  0  0  0  0
  136.5710  134.1030  142.7970 C   0  0  0  0  0  3  0  0  0  0  0  0
  133.9920  132.5030  148.5980 C   0  0  0  0  0  2  0  0  0  0  0  0
  135.2240  135.1040  151.1350 C   0  0  0  0  0  0  0  0  0  0  0  0
  135.2060  134.1100  150.1470 C   0  0  0  0  0  3  0  0  0  0  0  0
  134.0000  133.5420  149.6980 C   0  0  0  0  0  0  0  0  0  0  0  0
  132.7980  134.0080  150.2500 C   0  0  0  0  0  3  0  0  0  0  0  0
  132.7990  134.9990  151.2370 C   0  0  0  0  0  3  0  0  0  0  0  0
  134.0080  135.5370  151.6780 C   0  0  0  0  0  0  0  0  0  0  0  0
  137.0460  136.5810  150.7420 C   0  0  0  0  0  1  0  0  0  0  0  0
  136.3590  135.7010  151.6210 O   0  0  0  0  0  0  0  0  0  0  0  0
  134.0100  136.5030  152.6500 O   0  0  0  0  0  0  0  0  0  0  0  0
  133.2880  137.0970  152.7210 H   0  0  0  0  0  0  0  0  0  0  0  0
  1 14  1  0  0  0  0
  2  3  2  0  0  0  0
  2  1  1  0  0  0  0
  4  1  1  0  0  0  0
  5  2  1  0  0  0  0
  6  5  2  0  0  0  0
  7  6  1  0  0  0  0
  8  7  2  0  0  0  0
  9  8  1  0  0  0  0
 10  9  2  0  0  0  0
 10 11  1  0  0  0  0
 11 13  2  0  0  0  0
 12 11  1  0  0  0  0
 13  7  1  0  0  0  0
 14 17  1  0  0  0  0
 15 22  1  0  0  0  0
 15 20  1  0  0  0  0
 16 15  2  0  0  0  0
 17 16  1  0  0  0  0
 17 18  2  0  0  0  0
 18 19  1  0  0  0  0
 19 20  2  0  0  0  0
 20 23  1  0  0  0  0
 21 22  1  0  0  0  0
 23 24  1  0  0  0  0
M  END
>  <MODEL>
9

>  <REMARK>
 VINA RESULT:    -7.005      5.572      7.813
 INTER + INTRA:          -9.700
 INTER:                  -9.257
 INTRA:                  -0.442
 UNBOUND:                -0.442
  Name = CHEMBL80415
  7 active torsions:
  status: ('A' for Active; 'I' for Inactive)
    1  A    between atoms: C_1  and  O_2
    2  A    between atoms: O_2  and  C_3
    3  A    between atoms: C_5  and  C_6
    4  A    between atoms: C_6  and  N_7
    5  A    between atoms: C_8  and  C_10
    6  A    between atoms: C_11  and  C_12
    7  A    between atoms: C_21  and  O_22
                            x       y       z     vdW  Elec       q    Type
                         _______ _______ _______ _____ _____    ______ ____

>  <TORSDO>
F 6

>  <SCORE>
-7.005

>  <RMSD_LB>
5.572

>  <RMSD_UB>
7.813

$$$$
