CHEMBL5267439
 OpenBabel10162523393D

 36 36  0  0  0  0  0  0  0  0999 V2000
  137.0530  136.7680  153.4190 C   0  0  0  0  0  0  0  0  0  0  0  0
  137.5200  137.0530  152.1320 C   0  0  0  0  0  3  0  0  0  0  0  0
  138.6790  137.8110  151.9460 C   0  0  0  0  0  3  0  0  0  0  0  0
  139.3900  138.3160  153.0380 C   0  0  0  0  0  0  0  0  0  0  0  0
  138.9130  138.0730  154.3350 C   0  0  0  0  0  0  0  0  0  0  0  0
  137.7790  137.2670  154.5150 C   0  0  0  0  0  3  0  0  0  0  0  0
  139.4700  138.5220  155.5080 O   0  0  0  0  0  0  0  0  0  0  0  0
  139.4500  137.6110  156.6030 C   0  0  0  0  0  1  0  0  0  0  0  0
  135.7910  135.9760  153.6170 C   0  0  0  0  0  2  0  0  0  0  0  0
  133.8300  135.1290  152.4390 C   0  0  0  0  0  0  0  0  0  0  0  0
  133.3520  134.6850  153.4780 O   0  0  0  0  0  0  0  0  0  0  0  0
  135.0500  135.7680  152.3960 N   0  0  0  0  0  0  0  0  0  0  0  0
  135.4140  136.0810  151.5370 H   0  0  0  0  0  0  0  0  0  0  0  0
  133.1410  134.9940  151.0940 C   0  0  0  0  0  2  0  0  0  0  0  0
  133.1230  133.5380  150.6380 C   0  0  0  0  0  2  0  0  0  0  0  0
  132.8500  133.3910  149.1440 C   0  0  0  0  0  2  0  0  0  0  0  0
  133.9870  132.6220  148.4640 C   0  0  0  0  0  2  0  0  0  0  0  0
  134.7200  133.4890  147.4430 C   0  0  0  0  0  2  0  0  0  0  0  0
  135.6290  134.5030  148.1410 C   0  0  0  0  0  2  0  0  0  0  0  0
  135.7600  136.9110  148.8530 C   0  0  0  0  0  1  0  0  0  0  0  0
  135.1990  135.9360  147.8320 C   0  0  0  0  0  2  0  0  0  0  0  0
  140.5620  139.0200  152.9190 O   0  0  0  0  0  0  0  0  0  0  0  0
  141.4570  138.6670  151.8690 C   0  0  0  0  0  2  0  0  0  0  0  0
  142.3050  137.4900  152.3520 C   0  0  0  0  0  2  0  0  0  0  0  0
  143.7870  137.8020  152.1990 C   0  0  0  0  0  2  0  0  0  0  0  0
  144.5330  137.7940  153.5340 C   0  0  0  0  0  2  0  0  0  0  0  0
  144.7930  139.2370  153.9750 C   0  0  0  0  0  2  0  0  0  0  0  0
  144.5630  139.4180  155.3900 N   0  0  0  0  0  0  0  0  0  0  0  0
  143.3860  139.8270  155.9190 C   0  0  0  0  0  0  0  0  0  0  0  0
  142.2760  139.9750  155.2990 N   0  0  0  0  0  4  0  0  0  0  0  0
  143.4520  140.1040  157.2320 N   0  0  0  0  0  0  0  0  0  0  0  0
  145.3070  139.2330  156.0070 H   0  0  0  0  0  0  0  0  0  0  0  0
  142.2180  139.7740  154.3370 H   0  0  0  0  0  0  0  0  0  0  0  0
  141.4800  140.2900  155.7840 H   0  0  0  0  0  0  0  0  0  0  0  0
  144.3020  139.9930  157.7170 H   0  0  0  0  0  0  0  0  0  0  0  0
  142.6500  140.4180  157.7090 H   0  0  0  0  0  0  0  0  0  0  0  0
  1  9  1  0  0  0  0
  1  6  1  0  0  0  0
  2  1  2  0  0  0  0
  3  2  1  0  0  0  0
  3  4  2  0  0  0  0
  4  5  1  0  0  0  0
  5  6  2  0  0  0  0
  5  7  1  0  0  0  0
  7  8  1  0  0  0  0
 10 11  2  0  0  0  0
 12 10  1  0  0  0  0
 12  9  1  0  0  0  0
 13 12  1  0  0  0  0
 14 10  1  0  0  0  0
 15 14  1  0  0  0  0
 16 15  1  0  0  0  0
 17 16  1  0  0  0  0
 18 19  1  0  0  0  0
 18 17  1  0  0  0  0
 21 19  1  0  0  0  0
 21 20  1  0  0  0  0
 22  4  1  0  0  0  0
 23 24  1  0  0  0  0
 23 22  1  0  0  0  0
 25 24  1  0  0  0  0
 25 26  1  0  0  0  0
 26 27  1  0  0  0  0
 27 28  1  0  0  0  0
 28 29  1  0  0  0  0
 28 32  1  0  0  0  0
 29 31  1  0  0  0  0
 30 34  1  0  0  0  0
 30 29  2  0  0  0  0
 31 36  1  0  0  0  0
 31 35  1  0  0  0  0
 33 30  1  0  0  0  0
M  END
>  <MODEL>
1

>  <REMARK>
 VINA RESULT:    -7.084      0.000      0.000
 INTER + INTRA:         -15.496
 INTER:                 -13.193
 INTRA:                  -2.303
 UNBOUND:                -1.371
  Name = CHEMBL5267439
  19 active torsions:
  status: ('A' for Active; 'I' for Inactive)
    1  A    between atoms: C_1  and  C_2
    2  A    between atoms: C_2  and  C_3
    3  A    between atoms: C_3  and  C_4
    4  A    between atoms: C_4  and  C_5
    5  A    between atoms: C_5  and  C_6
    6  A    between atoms: C_6  and  C_7
    7  A    between atoms: C_7  and  C_8
    8  A    between atoms: C_8  and  C_9
    9  A    between atoms: N_11  and  C_12
   10  A    between atoms: C_12  and  C_13
   11  A    between atoms: C_16  and  O_17
   12  A    between atoms: O_17  and  C_18
   13  A    between atoms: C_18  and  C_19
   14  A    between atoms: C_19  and  C_20
   15  A    between atoms: C_20  and  C_21
   16  A    between atoms: C_21  and  C_22
   17  A    between atoms: C_22  and  N_23
   18  A    between atoms: C_27  and  O_28
   19  A    between atoms: O_28  and  C_29
                            x       y       z     vdW  Elec       q    Type
                         _______ _______ _______ _____ _____    ______ ____

>  <TORSDO>
F 17

>  <SCORE>
-7.084

>  <RMSD_LB>
0.000

>  <RMSD_UB>
0.000

$$$$
CHEMBL5267439
 OpenBabel10162523393D

 36 36  0  0  0  0  0  0  0  0999 V2000
  142.9910  137.4960  152.4330 C   0  0  0  0  0  0  0  0  0  0  0  0
  142.3420  137.2870  151.2110 C   0  0  0  0  0  3  0  0  0  0  0  0
  140.9750  137.5420  151.0780 C   0  0  0  0  0  3  0  0  0  0  0  0
  140.2200  137.9970  152.1630 C   0  0  0  0  0  0  0  0  0  0  0  0
  140.8470  138.1740  153.4050 C   0  0  0  0  0  0  0  0  0  0  0  0
  142.2300  137.9660  153.5180 C   0  0  0  0  0  3  0  0  0  0  0  0
  140.2480  138.5790  154.5730 O   0  0  0  0  0  0  0  0  0  0  0  0
  140.8680  138.1460  155.7810 C   0  0  0  0  0  1  0  0  0  0  0  0
  144.4560  137.1950  152.5820 C   0  0  0  0  0  2  0  0  0  0  0  0
  146.1680  137.6520  154.2600 C   0  0  0  0  0  0  0  0  0  0  0  0
  146.5090  136.4740  154.2850 O   0  0  0  0  0  0  0  0  0  0  0  0
  145.1410  138.1100  153.4630 N   0  0  0  0  0  0  0  0  0  0  0  0
  144.8760  139.0580  153.4950 H   0  0  0  0  0  0  0  0  0  0  0  0
  146.8210  138.7170  155.1210 C   0  0  0  0  0  2  0  0  0  0  0  0
  147.0670  139.9890  154.3160 C   0  0  0  0  0  2  0  0  0  0  0  0
  148.4250  140.6200  154.6100 C   0  0  0  0  0  2  0  0  0  0  0  0
  148.7320  141.7280  153.5980 C   0  0  0  0  0  2  0  0  0  0  0  0
  147.5730  141.9380  152.6260 C   0  0  0  0  0  2  0  0  0  0  0  0
  148.0910  142.2540  151.2210 C   0  0  0  0  0  2  0  0  0  0  0  0
  145.6060  142.5630  150.9890 C   0  0  0  0  0  1  0  0  0  0  0  0
  146.9400  142.5550  150.2620 C   0  0  0  0  0  2  0  0  0  0  0  0
  138.8870  138.3140  152.0800 O   0  0  0  0  0  0  0  0  0  0  0  0
  138.0980  137.6550  151.0940 C   0  0  0  0  0  2  0  0  0  0  0  0
  137.1920  136.6540  151.8130 C   0  0  0  0  0  2  0  0  0  0  0  0
  136.5210  135.7270  150.8100 C   0  0  0  0  0  2  0  0  0  0  0  0
  136.1360  134.3780  151.4190 C   0  0  0  0  0  2  0  0  0  0  0  0
  134.7760  134.5050  152.1080 C   0  0  0  0  0  2  0  0  0  0  0  0
  133.9670  135.5460  151.5170 N   0  0  0  0  0  0  0  0  0  0  0  0
  132.7370  135.3420  150.9910 C   0  0  0  0  0  0  0  0  0  0  0  0
  132.0430  134.2690  151.0550 N   0  0  0  0  0  0  0  0  0  0  0  0
  132.2480  136.4070  150.3330 N   0  0  0  0  0  4  0  0  0  0  0  0
  134.3330  136.4600  151.4950 H   0  0  0  0  0  0  0  0  0  0  0  0
  132.3930  133.4840  151.5350 H   0  0  0  0  0  0  0  0  0  0  0  0
  131.1590  134.2280  150.6250 H   0  0  0  0  0  0  0  0  0  0  0  0
  132.7750  137.2370  150.2780 H   0  0  0  0  0  0  0  0  0  0  0  0
  131.3620  136.3560  149.9050 H   0  0  0  0  0  0  0  0  0  0  0  0
  1  9  1  0  0  0  0
  1  6  1  0  0  0  0
  2  1  2  0  0  0  0
  3  2  1  0  0  0  0
  3  4  2  0  0  0  0
  4  5  1  0  0  0  0
  5  6  2  0  0  0  0
  5  7  1  0  0  0  0
  7  8  1  0  0  0  0
  9 12  1  0  0  0  0
 10 11  2  0  0  0  0
 10 14  1  0  0  0  0
 12 13  1  0  0  0  0
 12 10  1  0  0  0  0
 15 16  1  0  0  0  0
 15 14  1  0  0  0  0
 17 16  1  0  0  0  0
 18 17  1  0  0  0  0
 19 18  1  0  0  0  0
 21 20  1  0  0  0  0
 21 19  1  0  0  0  0
 22  4  1  0  0  0  0
 23 24  1  0  0  0  0
 23 22  1  0  0  0  0
 25 26  1  0  0  0  0
 25 24  1  0  0  0  0
 26 27  1  0  0  0  0
 28 27  1  0  0  0  0
 29 30  1  0  0  0  0
 29 28  1  0  0  0  0
 30 33  1  0  0  0  0
 31 29  2  0  0  0  0
 32 28  1  0  0  0  0
 34 30  1  0  0  0  0
 35 31  1  0  0  0  0
 36 31  1  0  0  0  0
M  END
>  <MODEL>
2

>  <REMARK>
 VINA RESULT:    -6.944      2.927     10.816
 INTER + INTRA:         -15.216
 INTER:                 -14.069
 INTRA:                  -1.147
 UNBOUND:                -1.371
  Name = CHEMBL5267439
  19 active torsions:
  status: ('A' for Active; 'I' for Inactive)
    1  A    between atoms: C_1  and  C_2
    2  A    between atoms: C_2  and  C_3
    3  A    between atoms: C_3  and  C_4
    4  A    between atoms: C_4  and  C_5
    5  A    between atoms: C_5  and  C_6
    6  A    between atoms: C_6  and  C_7
    7  A    between atoms: C_7  and  C_8
    8  A    between atoms: C_8  and  C_9
    9  A    between atoms: N_11  and  C_12
   10  A    between atoms: C_12  and  C_13
   11  A    between atoms: C_16  and  O_17
   12  A    between atoms: O_17  and  C_18
   13  A    between atoms: C_18  and  C_19
   14  A    between atoms: C_19  and  C_20
   15  A    between atoms: C_20  and  C_21
   16  A    between atoms: C_21  and  C_22
   17  A    between atoms: C_22  and  N_23
   18  A    between atoms: C_27  and  O_28
   19  A    between atoms: O_28  and  C_29
                            x       y       z     vdW  Elec       q    Type
                         _______ _______ _______ _____ _____    ______ ____

>  <TORSDO>
F 17

>  <SCORE>
-6.944

>  <RMSD_LB>
2.927

>  <RMSD_UB>
10.816

$$$$
CHEMBL5267439
 OpenBabel10162523393D

 36 36  0  0  0  0  0  0  0  0999 V2000
  140.5780  138.6010  154.0490 C   0  0  0  0  0  0  0  0  0  0  0  0
  140.9390  138.0070  152.8350 C   0  0  0  0  0  3  0  0  0  0  0  0
  142.2740  137.9800  152.4240 C   0  0  0  0  0  3  0  0  0  0  0  0
  143.2780  138.5570  153.2070 C   0  0  0  0  0  0  0  0  0  0  0  0
  142.9280  139.1910  154.4080 C   0  0  0  0  0  0  0  0  0  0  0  0
  141.5930  139.1690  154.8390 C   0  0  0  0  0  3  0  0  0  0  0  0
  143.7820  139.8330  155.2720 O   0  0  0  0  0  0  0  0  0  0  0  0
  143.2450  140.1760  156.5470 C   0  0  0  0  0  1  0  0  0  0  0  0
  139.1380  138.6540  154.4760 C   0  0  0  0  0  2  0  0  0  0  0  0
  137.2930  137.2480  155.2330 C   0  0  0  0  0  0  0  0  0  0  0  0
  136.6360  138.2280  155.5700 O   0  0  0  0  0  0  0  0  0  0  0  0
  138.5590  137.3510  154.6990 N   0  0  0  0  0  0  0  0  0  0  0  0
  139.0660  136.5390  154.4700 H   0  0  0  0  0  0  0  0  0  0  0  0
  136.7900  135.8260  155.3940 C   0  0  0  0  0  2  0  0  0  0  0  0
  135.2710  135.7710  155.2670 C   0  0  0  0  0  2  0  0  0  0  0  0
  134.7880  134.5590  154.4760 C   0  0  0  0  0  2  0  0  0  0  0  0
  134.6500  134.9080  152.9910 C   0  0  0  0  0  2  0  0  0  0  0  0
  135.8990  134.5200  152.2020 C   0  0  0  0  0  2  0  0  0  0  0  0
  136.1200  135.4740  151.0280 C   0  0  0  0  0  2  0  0  0  0  0  0
  138.1880  136.8590  150.6650 C   0  0  0  0  0  1  0  0  0  0  0  0
  136.9020  136.7130  151.4620 C   0  0  0  0  0  2  0  0  0  0  0  0
  144.6110  138.5140  152.8810 O   0  0  0  0  0  0  0  0  0  0  0  0
  145.0290  139.1390  151.6720 C   0  0  0  0  0  2  0  0  0  0  0  0
  144.8570  140.6500  151.8420 C   0  0  0  0  0  2  0  0  0  0  0  0
  146.2130  141.3260  151.9970 C   0  0  0  0  0  2  0  0  0  0  0  0
  146.2740  142.2540  153.2100 C   0  0  0  0  0  2  0  0  0  0  0  0
  147.3330  141.7380  154.1870 C   0  0  0  0  0  2  0  0  0  0  0  0
  147.7410  140.3870  153.8750 N   0  0  0  0  0  0  0  0  0  0  0  0
  147.4750  139.3160  154.6590 C   0  0  0  0  0  0  0  0  0  0  0  0
  146.7220  139.2890  155.6930 N   0  0  0  0  0  0  0  0  0  0  0  0
  148.1050  138.1940  154.2710 N   0  0  0  0  0  4  0  0  0  0  0  0
  148.2420  140.2360  153.0410 H   0  0  0  0  0  0  0  0  0  0  0  0
  146.2570  140.1070  155.9840 H   0  0  0  0  0  0  0  0  0  0  0  0
  146.6080  138.4520  156.1970 H   0  0  0  0  0  0  0  0  0  0  0  0
  148.6860  138.2040  153.4760 H   0  0  0  0  0  0  0  0  0  0  0  0
  147.9850  137.3610  154.7820 H   0  0  0  0  0  0  0  0  0  0  0  0
  1  9  1  0  0  0  0
  1  6  1  0  0  0  0
  2  1  2  0  0  0  0
  3  2  1  0  0  0  0
  3  4  2  0  0  0  0
  4  5  1  0  0  0  0
  5  6  2  0  0  0  0
  5  7  1  0  0  0  0
  7  8  1  0  0  0  0
  9 12  1  0  0  0  0
 10 14  1  0  0  0  0
 10 11  2  0  0  0  0
 12 10  1  0  0  0  0
 13 12  1  0  0  0  0
 15 14  1  0  0  0  0
 16 15  1  0  0  0  0
 17 16  1  0  0  0  0
 18 17  1  0  0  0  0
 19 21  1  0  0  0  0
 19 18  1  0  0  0  0
 20 21  1  0  0  0  0
 22  4  1  0  0  0  0
 23 24  1  0  0  0  0
 23 22  1  0  0  0  0
 24 25  1  0  0  0  0
 25 26  1  0  0  0  0
 26 27  1  0  0  0  0
 28 27  1  0  0  0  0
 28 29  1  0  0  0  0
 29 30  1  0  0  0  0
 30 33  1  0  0  0  0
 30 34  1  0  0  0  0
 31 29  2  0  0  0  0
 31 36  1  0  0  0  0
 32 28  1  0  0  0  0
 35 31  1  0  0  0  0
M  END
>  <MODEL>
3

>  <REMARK>
 VINA RESULT:    -6.821      2.836      4.459
 INTER + INTRA:         -14.972
 INTER:                 -12.859
 INTRA:                  -2.113
 UNBOUND:                -1.371
  Name = CHEMBL5267439
  19 active torsions:
  status: ('A' for Active; 'I' for Inactive)
    1  A    between atoms: C_1  and  C_2
    2  A    between atoms: C_2  and  C_3
    3  A    between atoms: C_3  and  C_4
    4  A    between atoms: C_4  and  C_5
    5  A    between atoms: C_5  and  C_6
    6  A    between atoms: C_6  and  C_7
    7  A    between atoms: C_7  and  C_8
    8  A    between atoms: C_8  and  C_9
    9  A    between atoms: N_11  and  C_12
   10  A    between atoms: C_12  and  C_13
   11  A    between atoms: C_16  and  O_17
   12  A    between atoms: O_17  and  C_18
   13  A    between atoms: C_18  and  C_19
   14  A    between atoms: C_19  and  C_20
   15  A    between atoms: C_20  and  C_21
   16  A    between atoms: C_21  and  C_22
   17  A    between atoms: C_22  and  N_23
   18  A    between atoms: C_27  and  O_28
   19  A    between atoms: O_28  and  C_29
                            x       y       z     vdW  Elec       q    Type
                         _______ _______ _______ _____ _____    ______ ____

>  <TORSDO>
F 17

>  <SCORE>
-6.821

>  <RMSD_LB>
2.836

>  <RMSD_UB>
4.459

$$$$
CHEMBL5267439
 OpenBabel10162523393D

 36 36  0  0  0  0  0  0  0  0999 V2000
  137.2100  136.6750  155.3160 C   0  0  0  0  0  0  0  0  0  0  0  0
  138.0040  136.9150  156.4420 C   0  0  0  0  0  3  0  0  0  0  0  0
  139.1190  137.7520  156.3620 C   0  0  0  0  0  3  0  0  0  0  0  0
  139.4770  138.3580  155.1540 C   0  0  0  0  0  0  0  0  0  0  0  0
  138.7150  138.0960  154.0060 C   0  0  0  0  0  0  0  0  0  0  0  0
  137.5670  137.2960  154.1060 C   0  0  0  0  0  3  0  0  0  0  0  0
  138.9490  138.5800  152.7420 O   0  0  0  0  0  0  0  0  0  0  0  0
  138.5800  137.7250  151.6630 C   0  0  0  0  0  1  0  0  0  0  0  0
  136.0270  135.7510  155.3960 C   0  0  0  0  0  2  0  0  0  0  0  0
  134.0810  135.2360  154.0180 C   0  0  0  0  0  0  0  0  0  0  0  0
  133.3440  135.2250  154.9980 O   0  0  0  0  0  0  0  0  0  0  0  0
  135.4370  135.4650  154.1110 N   0  0  0  0  0  0  0  0  0  0  0  0
  135.9990  135.4350  153.3030 H   0  0  0  0  0  0  0  0  0  0  0  0
  133.5810  134.9720  152.6100 C   0  0  0  0  0  2  0  0  0  0  0  0
  134.6880  135.2100  151.5880 C   0  0  0  0  0  2  0  0  0  0  0  0
  135.0690  133.9440  150.8250 C   0  0  0  0  0  2  0  0  0  0  0  0
  133.8150  133.1600  150.4280 C   0  0  0  0  0  2  0  0  0  0  0  0
  133.8510  132.7480  148.9580 C   0  0  0  0  0  2  0  0  0  0  0  0
  132.8930  133.6050  148.1280 C   0  0  0  0  0  2  0  0  0  0  0  0
  132.9490  136.1150  148.2730 C   0  0  0  0  0  1  0  0  0  0  0  0
  133.5740  134.8830  147.6420 C   0  0  0  0  0  2  0  0  0  0  0  0
  140.5290  139.2310  155.0260 O   0  0  0  0  0  0  0  0  0  0  0  0
  141.8420  138.7460  155.2870 C   0  0  0  0  0  2  0  0  0  0  0  0
  142.3710  138.1130  153.9990 C   0  0  0  0  0  2  0  0  0  0  0  0
  142.8960  139.1860  153.0540 C   0  0  0  0  0  2  0  0  0  0  0  0
  144.3890  139.0360  152.7620 C   0  0  0  0  0  2  0  0  0  0  0  0
  145.1910  139.5230  153.9710 C   0  0  0  0  0  2  0  0  0  0  0  0
  146.1460  140.5450  153.6080 N   0  0  0  0  0  0  0  0  0  0  0  0
  147.3220  140.7420  154.2480 C   0  0  0  0  0  0  0  0  0  0  0  0
  147.8400  139.9980  155.1510 N   0  0  0  0  0  0  0  0  0  0  0  0
  147.9650  141.8580  153.8640 N   0  0  0  0  0  4  0  0  0  0  0  0
  145.9280  141.1330  152.8490 H   0  0  0  0  0  0  0  0  0  0  0  0
  147.3760  139.1780  155.4380 H   0  0  0  0  0  0  0  0  0  0  0  0
  148.7010  140.2440  155.5580 H   0  0  0  0  0  0  0  0  0  0  0  0
  147.5740  142.4370  153.1690 H   0  0  0  0  0  0  0  0  0  0  0  0
  148.8260  142.0970  154.2770 H   0  0  0  0  0  0  0  0  0  0  0  0
  1  9  1  0  0  0  0
  1  2  1  0  0  0  0
  3  2  2  0  0  0  0
  4  3  1  0  0  0  0
  5  6  1  0  0  0  0
  5  4  2  0  0  0  0
  6  1  2  0  0  0  0
  7  5  1  0  0  0  0
  8  7  1  0  0  0  0
 10 12  1  0  0  0  0
 10 11  2  0  0  0  0
 12  9  1  0  0  0  0
 13 12  1  0  0  0  0
 14 10  1  0  0  0  0
 15 14  1  0  0  0  0
 16 15  1  0  0  0  0
 17 16  1  0  0  0  0
 18 17  1  0  0  0  0
 19 18  1  0  0  0  0
 21 19  1  0  0  0  0
 21 20  1  0  0  0  0
 22  4  1  0  0  0  0
 22 23  1  0  0  0  0
 24 23  1  0  0  0  0
 25 24  1  0  0  0  0
 26 25  1  0  0  0  0
 26 27  1  0  0  0  0
 28 27  1  0  0  0  0
 28 29  1  0  0  0  0
 29 30  1  0  0  0  0
 30 33  1  0  0  0  0
 30 34  1  0  0  0  0
 31 29  2  0  0  0  0
 31 36  1  0  0  0  0
 32 28  1  0  0  0  0
 35 31  1  0  0  0  0
M  END
>  <MODEL>
4

>  <REMARK>
 VINA RESULT:    -6.813      1.870      2.911
 INTER + INTRA:         -14.956
 INTER:                 -13.408
 INTRA:                  -1.547
 UNBOUND:                -1.371
  Name = CHEMBL5267439
  19 active torsions:
  status: ('A' for Active; 'I' for Inactive)
    1  A    between atoms: C_1  and  C_2
    2  A    between atoms: C_2  and  C_3
    3  A    between atoms: C_3  and  C_4
    4  A    between atoms: C_4  and  C_5
    5  A    between atoms: C_5  and  C_6
    6  A    between atoms: C_6  and  C_7
    7  A    between atoms: C_7  and  C_8
    8  A    between atoms: C_8  and  C_9
    9  A    between atoms: N_11  and  C_12
   10  A    between atoms: C_12  and  C_13
   11  A    between atoms: C_16  and  O_17
   12  A    between atoms: O_17  and  C_18
   13  A    between atoms: C_18  and  C_19
   14  A    between atoms: C_19  and  C_20
   15  A    between atoms: C_20  and  C_21
   16  A    between atoms: C_21  and  C_22
   17  A    between atoms: C_22  and  N_23
   18  A    between atoms: C_27  and  O_28
   19  A    between atoms: O_28  and  C_29
                            x       y       z     vdW  Elec       q    Type
                         _______ _______ _______ _____ _____    ______ ____

>  <TORSDO>
F 17

>  <SCORE>
-6.813

>  <RMSD_LB>
1.870

>  <RMSD_UB>
2.911

$$$$
CHEMBL5267439
 OpenBabel10162523393D

 36 36  0  0  0  0  0  0  0  0999 V2000
  140.5570  138.0570  153.1160 C   0  0  0  0  0  0  0  0  0  0  0  0
  140.6690  137.5360  151.8220 C   0  0  0  0  0  3  0  0  0  0  0  0
  141.9180  137.1900  151.3000 C   0  0  0  0  0  3  0  0  0  0  0  0
  143.0850  137.3680  152.0480 C   0  0  0  0  0  0  0  0  0  0  0  0
  142.9940  137.9260  153.3320 C   0  0  0  0  0  0  0  0  0  0  0  0
  141.7320  138.2230  153.8700 C   0  0  0  0  0  3  0  0  0  0  0  0
  144.0390  138.1980  154.1810 O   0  0  0  0  0  0  0  0  0  0  0  0
  144.1580  139.5490  154.6190 C   0  0  0  0  0  1  0  0  0  0  0  0
  139.2170  138.4560  153.6660 C   0  0  0  0  0  2  0  0  0  0  0  0
  137.8230  138.3070  155.6630 C   0  0  0  0  0  0  0  0  0  0  0  0
  137.0270  139.1250  155.2140 O   0  0  0  0  0  0  0  0  0  0  0  0
  138.9580  137.9230  154.9820 N   0  0  0  0  0  0  0  0  0  0  0  0
  139.5880  137.2870  155.3910 H   0  0  0  0  0  0  0  0  0  0  0  0
  137.6540  137.6570  157.0240 C   0  0  0  0  0  2  0  0  0  0  0  0
  137.6370  136.1370  156.9010 C   0  0  0  0  0  2  0  0  0  0  0  0
  136.6200  135.6400  155.8770 C   0  0  0  0  0  2  0  0  0  0  0  0
  135.2620  135.3980  156.5440 C   0  0  0  0  0  2  0  0  0  0  0  0
  135.4210  134.9090  157.9820 C   0  0  0  0  0  2  0  0  0  0  0  0
  134.1340  135.1310  158.7790 C   0  0  0  0  0  2  0  0  0  0  0  0
  135.8890  136.2100  160.2230 C   0  0  0  0  0  1  0  0  0  0  0  0
  134.4090  135.9010  160.0700 C   0  0  0  0  0  2  0  0  0  0  0  0
  144.3310  136.9980  151.6090 O   0  0  0  0  0  0  0  0  0  0  0  0
  145.0370  137.8910  150.7540 C   0  0  0  0  0  2  0  0  0  0  0  0
  146.5340  137.6430  150.9510 C   0  0  0  0  0  2  0  0  0  0  0  0
  146.7930  137.0000  152.3070 C   0  0  0  0  0  2  0  0  0  0  0  0
  147.3810  137.9810  153.3220 C   0  0  0  0  0  2  0  0  0  0  0  0
  147.9110  139.2130  152.5840 C   0  0  0  0  0  2  0  0  0  0  0  0
  147.2020  140.4140  152.9610 N   0  0  0  0  0  0  0  0  0  0  0  0
  147.5820  141.2320  153.9700 C   0  0  0  0  0  0  0  0  0  0  0  0
  148.6700  141.1700  154.6400 N   0  0  0  0  0  0  0  0  0  0  0  0
  146.6790  142.1830  154.2630 N   0  0  0  0  0  4  0  0  0  0  0  0
  146.3920  140.6520  152.4530 H   0  0  0  0  0  0  0  0  0  0  0  0
  149.3370  140.4770  154.4330 H   0  0  0  0  0  0  0  0  0  0  0  0
  148.8390  141.8140  155.3640 H   0  0  0  0  0  0  0  0  0  0  0  0
  145.8380  142.2390  153.7520 H   0  0  0  0  0  0  0  0  0  0  0  0
  146.8570  142.8240  154.9890 H   0  0  0  0  0  0  0  0  0  0  0  0
  1  9  1  0  0  0  0
  1  6  1  0  0  0  0
  2  1  2  0  0  0  0
  3  2  1  0  0  0  0
  3  4  2  0  0  0  0
  4  5  1  0  0  0  0
  5  6  2  0  0  0  0
  5  7  1  0  0  0  0
  7  8  1  0  0  0  0
  9 12  1  0  0  0  0
 10 14  1  0  0  0  0
 11 10  2  0  0  0  0
 12 13  1  0  0  0  0
 12 10  1  0  0  0  0
 15 14  1  0  0  0  0
 16 17  1  0  0  0  0
 16 15  1  0  0  0  0
 17 18  1  0  0  0  0
 18 19  1  0  0  0  0
 19 21  1  0  0  0  0
 21 20  1  0  0  0  0
 22  4  1  0  0  0  0
 23 24  1  0  0  0  0
 23 22  1  0  0  0  0
 24 25  1  0  0  0  0
 25 26  1  0  0  0  0
 27 28  1  0  0  0  0
 27 26  1  0  0  0  0
 28 29  1  0  0  0  0
 29 31  2  0  0  0  0
 29 30  1  0  0  0  0
 30 34  1  0  0  0  0
 31 36  1  0  0  0  0
 32 28  1  0  0  0  0
 33 30  1  0  0  0  0
 35 31  1  0  0  0  0
M  END
>  <MODEL>
5

>  <REMARK>
 VINA RESULT:    -6.787      4.505      6.379
 INTER + INTRA:         -14.903
 INTER:                 -13.247
 INTRA:                  -1.656
 UNBOUND:                -1.371
  Name = CHEMBL5267439
  19 active torsions:
  status: ('A' for Active; 'I' for Inactive)
    1  A    between atoms: C_1  and  C_2
    2  A    between atoms: C_2  and  C_3
    3  A    between atoms: C_3  and  C_4
    4  A    between atoms: C_4  and  C_5
    5  A    between atoms: C_5  and  C_6
    6  A    between atoms: C_6  and  C_7
    7  A    between atoms: C_7  and  C_8
    8  A    between atoms: C_8  and  C_9
    9  A    between atoms: N_11  and  C_12
   10  A    between atoms: C_12  and  C_13
   11  A    between atoms: C_16  and  O_17
   12  A    between atoms: O_17  and  C_18
   13  A    between atoms: C_18  and  C_19
   14  A    between atoms: C_19  and  C_20
   15  A    between atoms: C_20  and  C_21
   16  A    between atoms: C_21  and  C_22
   17  A    between atoms: C_22  and  N_23
   18  A    between atoms: C_27  and  O_28
   19  A    between atoms: O_28  and  C_29
                            x       y       z     vdW  Elec       q    Type
                         _______ _______ _______ _____ _____    ______ ____

>  <TORSDO>
F 17

>  <SCORE>
-6.787

>  <RMSD_LB>
4.505

>  <RMSD_UB>
6.379

$$$$
CHEMBL5267439
 OpenBabel10162523393D

 36 36  0  0  0  0  0  0  0  0999 V2000
  140.1460  137.9230  152.2780 C   0  0  0  0  0  0  0  0  0  0  0  0
  141.1130  138.1550  153.2620 C   0  0  0  0  0  3  0  0  0  0  0  0
  142.4540  137.8390  153.0320 C   0  0  0  0  0  3  0  0  0  0  0  0
  142.8600  137.2700  151.8210 C   0  0  0  0  0  0  0  0  0  0  0  0
  141.8970  136.9940  150.8390 C   0  0  0  0  0  0  0  0  0  0  0  0
  140.5620  137.3630  151.0570 C   0  0  0  0  0  3  0  0  0  0  0  0
  142.1220  136.4100  149.6160 O   0  0  0  0  0  0  0  0  0  0  0  0
  140.9670  135.9630  148.9120 C   0  0  0  0  0  1  0  0  0  0  0  0
  138.7000  138.2380  152.5380 C   0  0  0  0  0  2  0  0  0  0  0  0
  137.6430  138.0680  154.7310 C   0  0  0  0  0  0  0  0  0  0  0  0
  137.7150  139.2800  154.9000 O   0  0  0  0  0  0  0  0  0  0  0  0
  138.1250  137.4460  153.5990 N   0  0  0  0  0  0  0  0  0  0  0  0
  138.0760  136.4660  153.5150 H   0  0  0  0  0  0  0  0  0  0  0  0
  137.0420  137.1280  155.7600 C   0  0  0  0  0  2  0  0  0  0  0  0
  136.9250  135.7140  155.1980 C   0  0  0  0  0  2  0  0  0  0  0  0
  135.5110  135.3810  154.7290 C   0  0  0  0  0  2  0  0  0  0  0  0
  135.5350  134.8470  153.2940 C   0  0  0  0  0  2  0  0  0  0  0  0
  134.2920  134.0170  152.9820 C   0  0  0  0  0  2  0  0  0  0  0  0
  134.1500  133.7930  151.4750 C   0  0  0  0  0  2  0  0  0  0  0  0
  132.8710  135.8630  150.8380 C   0  0  0  0  0  1  0  0  0  0  0  0
  134.1890  135.1170  150.7130 C   0  0  0  0  0  2  0  0  0  0  0  0
  144.1690  136.9880  151.5180 O   0  0  0  0  0  0  0  0  0  0  0  0
  145.1840  137.8070  152.0890 C   0  0  0  0  0  2  0  0  0  0  0  0
  146.2900  136.8870  152.6090 C   0  0  0  0  0  2  0  0  0  0  0  0
  146.1710  136.7110  154.1170 C   0  0  0  0  0  2  0  0  0  0  0  0
  146.3240  138.0280  154.8790 C   0  0  0  0  0  2  0  0  0  0  0  0
  147.7730  138.5090  154.7680 C   0  0  0  0  0  2  0  0  0  0  0  0
  147.8990  139.9160  155.0700 N   0  0  0  0  0  0  0  0  0  0  0  0
  148.5000  140.8150  154.2550 C   0  0  0  0  0  0  0  0  0  0  0  0
  148.9110  140.6120  153.0610 N   0  0  0  0  0  4  0  0  0  0  0  0
  148.6660  142.0250  154.8150 N   0  0  0  0  0  0  0  0  0  0  0  0
  147.5250  140.2420  155.9210 H   0  0  0  0  0  0  0  0  0  0  0  0
  148.7930  139.7290  152.6420 H   0  0  0  0  0  0  0  0  0  0  0  0
  149.3460  141.3390  152.5600 H   0  0  0  0  0  0  0  0  0  0  0  0
  148.3520  142.1900  155.7340 H   0  0  0  0  0  0  0  0  0  0  0  0
  149.1030  142.7460  154.3070 H   0  0  0  0  0  0  0  0  0  0  0  0
  1  9  1  0  0  0  0
  1  2  1  0  0  0  0
  3  2  2  0  0  0  0
  4  3  1  0  0  0  0
  5  6  1  0  0  0  0
  5  4  2  0  0  0  0
  6  1  2  0  0  0  0
  7  5  1  0  0  0  0
  8  7  1  0  0  0  0
  9 12  1  0  0  0  0
 10 11  2  0  0  0  0
 10 14  1  0  0  0  0
 12 10  1  0  0  0  0
 13 12  1  0  0  0  0
 15 14  1  0  0  0  0
 16 15  1  0  0  0  0
 17 16  1  0  0  0  0
 18 17  1  0  0  0  0
 19 18  1  0  0  0  0
 21 20  1  0  0  0  0
 21 19  1  0  0  0  0
 22  4  1  0  0  0  0
 22 23  1  0  0  0  0
 23 24  1  0  0  0  0
 24 25  1  0  0  0  0
 25 26  1  0  0  0  0
 27 26  1  0  0  0  0
 27 28  1  0  0  0  0
 28 32  1  0  0  0  0
 29 31  1  0  0  0  0
 29 28  1  0  0  0  0
 30 29  2  0  0  0  0
 31 35  1  0  0  0  0
 33 30  1  0  0  0  0
 34 30  1  0  0  0  0
 36 31  1  0  0  0  0
M  END
>  <MODEL>
6

>  <REMARK>
 VINA RESULT:    -6.750      2.837      4.950
 INTER + INTRA:         -14.830
 INTER:                 -13.459
 INTRA:                  -1.371
 UNBOUND:                -1.371
  Name = CHEMBL5267439
  19 active torsions:
  status: ('A' for Active; 'I' for Inactive)
    1  A    between atoms: C_1  and  C_2
    2  A    between atoms: C_2  and  C_3
    3  A    between atoms: C_3  and  C_4
    4  A    between atoms: C_4  and  C_5
    5  A    between atoms: C_5  and  C_6
    6  A    between atoms: C_6  and  C_7
    7  A    between atoms: C_7  and  C_8
    8  A    between atoms: C_8  and  C_9
    9  A    between atoms: N_11  and  C_12
   10  A    between atoms: C_12  and  C_13
   11  A    between atoms: C_16  and  O_17
   12  A    between atoms: O_17  and  C_18
   13  A    between atoms: C_18  and  C_19
   14  A    between atoms: C_19  and  C_20
   15  A    between atoms: C_20  and  C_21
   16  A    between atoms: C_21  and  C_22
   17  A    between atoms: C_22  and  N_23
   18  A    between atoms: C_27  and  O_28
   19  A    between atoms: O_28  and  C_29
                            x       y       z     vdW  Elec       q    Type
                         _______ _______ _______ _____ _____    ______ ____

>  <TORSDO>
F 17

>  <SCORE>
-6.750

>  <RMSD_LB>
2.837

>  <RMSD_UB>
4.950

$$$$
CHEMBL5267439
 OpenBabel10162523393D

 36 36  0  0  0  0  0  0  0  0999 V2000
  140.7640  138.2430  152.6120 C   0  0  0  0  0  0  0  0  0  0  0  0
  140.4650  137.6920  151.3610 C   0  0  0  0  0  3  0  0  0  0  0  0
  139.1670  137.2720  151.0600 C   0  0  0  0  0  3  0  0  0  0  0  0
  138.1410  137.3780  152.0030 C   0  0  0  0  0  0  0  0  0  0  0  0
  138.4320  137.8920  153.2750 C   0  0  0  0  0  0  0  0  0  0  0  0
  139.7250  138.3590  153.5520 C   0  0  0  0  0  3  0  0  0  0  0  0
  137.5520  138.0310  154.3210 O   0  0  0  0  0  0  0  0  0  0  0  0
  137.3300  136.8680  155.1140 C   0  0  0  0  0  1  0  0  0  0  0  0
  142.1660  138.6690  152.9440 C   0  0  0  0  0  2  0  0  0  0  0  0
  143.7900  139.4500  151.2990 C   0  0  0  0  0  0  0  0  0  0  0  0
  144.4070  138.3910  151.3510 O   0  0  0  0  0  0  0  0  0  0  0  0
  142.6740  139.6980  152.0690 N   0  0  0  0  0  0  0  0  0  0  0  0
  142.2260  140.5730  152.0210 H   0  0  0  0  0  0  0  0  0  0  0  0
  144.2070  140.6020  150.4040 C   0  0  0  0  0  2  0  0  0  0  0  0
  145.2900  140.1620  149.4240 C   0  0  0  0  0  2  0  0  0  0  0  0
  146.6900  140.5840  149.8610 C   0  0  0  0  0  2  0  0  0  0  0  0
  146.7010  142.0590  150.2720 C   0  0  0  0  0  2  0  0  0  0  0  0
  147.4730  142.2750  151.5720 C   0  0  0  0  0  2  0  0  0  0  0  0
  146.5260  142.2850  152.7740 C   0  0  0  0  0  2  0  0  0  0  0  0
  148.5000  141.8900  154.2810 C   0  0  0  0  0  1  0  0  0  0  0  0
  147.0870  141.4560  153.9270 C   0  0  0  0  0  2  0  0  0  0  0  0
  136.8370  137.0320  151.7460 O   0  0  0  0  0  0  0  0  0  0  0  0
  136.4880  136.6610  150.4160 C   0  0  0  0  0  2  0  0  0  0  0  0
  136.0820  135.1860  150.4330 C   0  0  0  0  0  2  0  0  0  0  0  0
  136.1600  134.5960  149.0310 C   0  0  0  0  0  2  0  0  0  0  0  0
  134.9440  133.7360  148.6850 C   0  0  0  0  0  2  0  0  0  0  0  0
  133.9970  134.5380  147.7900 C   0  0  0  0  0  2  0  0  0  0  0  0
  133.0740  135.3380  148.5620 N   0  0  0  0  0  0  0  0  0  0  0  0
  133.1330  136.6880  148.6500 C   0  0  0  0  0  0  0  0  0  0  0  0
  133.8900  137.4690  147.9770 N   0  0  0  0  0  4  0  0  0  0  0  0
  132.2960  137.2060  149.5640 N   0  0  0  0  0  0  0  0  0  0  0  0
  132.3590  134.8740  149.0540 H   0  0  0  0  0  0  0  0  0  0  0  0
  134.5070  137.0980  147.3040 H   0  0  0  0  0  0  0  0  0  0  0  0
  133.8570  138.4400  148.1310 H   0  0  0  0  0  0  0  0  0  0  0  0
  131.7090  136.6130  150.0870 H   0  0  0  0  0  0  0  0  0  0  0  0
  132.2700  138.1790  149.7120 H   0  0  0  0  0  0  0  0  0  0  0  0
  1  9  1  0  0  0  0
  1  6  1  0  0  0  0
  2  1  2  0  0  0  0
  3  2  1  0  0  0  0
  3  4  2  0  0  0  0
  4  5  1  0  0  0  0
  5  6  2  0  0  0  0
  5  7  1  0  0  0  0
  7  8  1  0  0  0  0
 10 11  2  0  0  0  0
 10 12  1  0  0  0  0
 12  9  1  0  0  0  0
 13 12  1  0  0  0  0
 14 10  1  0  0  0  0
 15 16  1  0  0  0  0
 15 14  1  0  0  0  0
 16 17  1  0  0  0  0
 17 18  1  0  0  0  0
 18 19  1  0  0  0  0
 19 21  1  0  0  0  0
 21 20  1  0  0  0  0
 22  4  1  0  0  0  0
 23 24  1  0  0  0  0
 23 22  1  0  0  0  0
 25 24  1  0  0  0  0
 26 25  1  0  0  0  0
 27 28  1  0  0  0  0
 27 26  1  0  0  0  0
 28 29  1  0  0  0  0
 28 32  1  0  0  0  0
 29 31  1  0  0  0  0
 30 34  1  0  0  0  0
 30 29  2  0  0  0  0
 31 36  1  0  0  0  0
 31 35  1  0  0  0  0
 33 30  1  0  0  0  0
M  END
>  <MODEL>
7

>  <REMARK>
 VINA RESULT:    -6.732      3.081     10.538
 INTER + INTRA:         -14.794
 INTER:                 -13.316
 INTRA:                  -1.478
 UNBOUND:                -1.371
  Name = CHEMBL5267439
  19 active torsions:
  status: ('A' for Active; 'I' for Inactive)
    1  A    between atoms: C_1  and  C_2
    2  A    between atoms: C_2  and  C_3
    3  A    between atoms: C_3  and  C_4
    4  A    between atoms: C_4  and  C_5
    5  A    between atoms: C_5  and  C_6
    6  A    between atoms: C_6  and  C_7
    7  A    between atoms: C_7  and  C_8
    8  A    between atoms: C_8  and  C_9
    9  A    between atoms: N_11  and  C_12
   10  A    between atoms: C_12  and  C_13
   11  A    between atoms: C_16  and  O_17
   12  A    between atoms: O_17  and  C_18
   13  A    between atoms: C_18  and  C_19
   14  A    between atoms: C_19  and  C_20
   15  A    between atoms: C_20  and  C_21
   16  A    between atoms: C_21  and  C_22
   17  A    between atoms: C_22  and  N_23
   18  A    between atoms: C_27  and  O_28
   19  A    between atoms: O_28  and  C_29
                            x       y       z     vdW  Elec       q    Type
                         _______ _______ _______ _____ _____    ______ ____

>  <TORSDO>
F 17

>  <SCORE>
-6.732

>  <RMSD_LB>
3.081

>  <RMSD_UB>
10.538

$$$$
CHEMBL5267439
 OpenBabel10162523393D

 36 36  0  0  0  0  0  0  0  0999 V2000
  140.8390  138.6000  153.6510 C   0  0  0  0  0  0  0  0  0  0  0  0
  140.8880  137.7660  152.5280 C   0  0  0  0  0  3  0  0  0  0  0  0
  142.1030  137.5020  151.8900 C   0  0  0  0  0  3  0  0  0  0  0  0
  143.2930  138.0750  152.3460 C   0  0  0  0  0  0  0  0  0  0  0  0
  143.2550  138.9440  153.4460 C   0  0  0  0  0  0  0  0  0  0  0  0
  142.0410  139.1630  154.1130 C   0  0  0  0  0  3  0  0  0  0  0  0
  144.3220  139.6130  153.9970 O   0  0  0  0  0  0  0  0  0  0  0  0
  145.1480  138.8590  154.8800 C   0  0  0  0  0  1  0  0  0  0  0  0
  139.5280  138.9050  154.3190 C   0  0  0  0  0  2  0  0  0  0  0  0
  137.8640  137.9510  155.8270 C   0  0  0  0  0  0  0  0  0  0  0  0
  137.0680  138.8510  155.5780 O   0  0  0  0  0  0  0  0  0  0  0  0
  139.1240  137.8980  155.2710 N   0  0  0  0  0  0  0  0  0  0  0  0
  139.7440  137.1760  155.5210 H   0  0  0  0  0  0  0  0  0  0  0  0
  137.5530  136.8220  156.7930 C   0  0  0  0  0  2  0  0  0  0  0  0
  136.2220  136.1630  156.4450 C   0  0  0  0  0  2  0  0  0  0  0  0
  136.2230  135.5280  155.0570 C   0  0  0  0  0  2  0  0  0  0  0  0
  134.8320  134.9850  154.7150 C   0  0  0  0  0  2  0  0  0  0  0  0
  134.4950  135.1910  153.2390 C   0  0  0  0  0  2  0  0  0  0  0  0
  135.7390  135.0150  152.3660 C   0  0  0  0  0  2  0  0  0  0  0  0
  133.9920  133.6860  151.1390 C   0  0  0  0  0  1  0  0  0  0  0  0
  135.4470  134.1220  151.1620 C   0  0  0  0  0  2  0  0  0  0  0  0
  144.5220  137.8100  151.7930 O   0  0  0  0  0  0  0  0  0  0  0  0
  144.5790  137.4660  150.4130 C   0  0  0  0  0  2  0  0  0  0  0  0
  145.9390  137.9130  149.8750 C   0  0  0  0  0  2  0  0  0  0  0  0
  146.7620  138.5630  150.9800 C   0  0  0  0  0  2  0  0  0  0  0  0
  147.0040  140.0530  150.7370 C   0  0  0  0  0  2  0  0  0  0  0  0
  147.6260  140.6730  151.9900 C   0  0  0  0  0  2  0  0  0  0  0  0
  146.6630  141.4410  152.7460 N   0  0  0  0  0  0  0  0  0  0  0  0
  146.8770  141.8960  154.0030 C   0  0  0  0  0  0  0  0  0  0  0  0
  147.9760  141.8560  154.6570 N   0  0  0  0  0  0  0  0  0  0  0  0
  145.7840  142.4230  154.5790 N   0  0  0  0  0  4  0  0  0  0  0  0
  145.7990  141.6460  152.3220 H   0  0  0  0  0  0  0  0  0  0  0  0
  148.7820  141.4720  154.2420 H   0  0  0  0  0  0  0  0  0  0  0  0
  148.0160  142.2080  155.5740 H   0  0  0  0  0  0  0  0  0  0  0  0
  144.9340  142.4580  154.0840 H   0  0  0  0  0  0  0  0  0  0  0  0
  145.8330  142.7730  155.4980 H   0  0  0  0  0  0  0  0  0  0  0  0
  1  6  1  0  0  0  0
  1  9  1  0  0  0  0
  2  1  2  0  0  0  0
  3  4  2  0  0  0  0
  3  2  1  0  0  0  0
  4  5  1  0  0  0  0
  5  7  1  0  0  0  0
  5  6  2  0  0  0  0
  7  8  1  0  0  0  0
  9 12  1  0  0  0  0
 10 14  1  0  0  0  0
 11 10  2  0  0  0  0
 12 13  1  0  0  0  0
 12 10  1  0  0  0  0
 15 14  1  0  0  0  0
 16 15  1  0  0  0  0
 17 16  1  0  0  0  0
 18 17  1  0  0  0  0
 19 18  1  0  0  0  0
 20 21  1  0  0  0  0
 21 19  1  0  0  0  0
 22  4  1  0  0  0  0
 23 22  1  0  0  0  0
 24 23  1  0  0  0  0
 24 25  1  0  0  0  0
 26 25  1  0  0  0  0
 26 27  1  0  0  0  0
 27 28  1  0  0  0  0
 28 29  1  0  0  0  0
 29 31  2  0  0  0  0
 29 30  1  0  0  0  0
 30 34  1  0  0  0  0
 31 36  1  0  0  0  0
 32 28  1  0  0  0  0
 33 30  1  0  0  0  0
 35 31  1  0  0  0  0
M  END
>  <MODEL>
8

>  <REMARK>
 VINA RESULT:    -6.687      2.822      5.040
 INTER + INTRA:         -14.704
 INTER:                 -13.071
 INTRA:                  -1.634
 UNBOUND:                -1.371
  Name = CHEMBL5267439
  19 active torsions:
  status: ('A' for Active; 'I' for Inactive)
    1  A    between atoms: C_1  and  C_2
    2  A    between atoms: C_2  and  C_3
    3  A    between atoms: C_3  and  C_4
    4  A    between atoms: C_4  and  C_5
    5  A    between atoms: C_5  and  C_6
    6  A    between atoms: C_6  and  C_7
    7  A    between atoms: C_7  and  C_8
    8  A    between atoms: C_8  and  C_9
    9  A    between atoms: N_11  and  C_12
   10  A    between atoms: C_12  and  C_13
   11  A    between atoms: C_16  and  O_17
   12  A    between atoms: O_17  and  C_18
   13  A    between atoms: C_18  and  C_19
   14  A    between atoms: C_19  and  C_20
   15  A    between atoms: C_20  and  C_21
   16  A    between atoms: C_21  and  C_22
   17  A    between atoms: C_22  and  N_23
   18  A    between atoms: C_27  and  O_28
   19  A    between atoms: O_28  and  C_29
                            x       y       z     vdW  Elec       q    Type
                         _______ _______ _______ _____ _____    ______ ____

>  <TORSDO>
F 17

>  <SCORE>
-6.687

>  <RMSD_LB>
2.822

>  <RMSD_UB>
5.040

$$$$
CHEMBL5267439
 OpenBabel10162523393D

 36 36  0  0  0  0  0  0  0  0999 V2000
  141.3810  137.9730  152.3110 C   0  0  0  0  0  0  0  0  0  0  0  0
  142.0190  137.2080  151.3290 C   0  0  0  0  0  3  0  0  0  0  0  0
  143.4130  137.1300  151.2800 C   0  0  0  0  0  3  0  0  0  0  0  0
  144.2040  137.8260  152.1980 C   0  0  0  0  0  0  0  0  0  0  0  0
  143.5810  138.6290  153.1650 C   0  0  0  0  0  0  0  0  0  0  0  0
  142.1810  138.6610  153.2410 C   0  0  0  0  0  3  0  0  0  0  0  0
  144.2090  139.4000  154.1140 O   0  0  0  0  0  0  0  0  0  0  0  0
  143.4600  139.6750  155.2950 C   0  0  0  0  0  1  0  0  0  0  0  0
  139.8830  138.0790  152.3460 C   0  0  0  0  0  2  0  0  0  0  0  0
  138.0510  137.7820  153.9300 C   0  0  0  0  0  0  0  0  0  0  0  0
  137.3030  137.3780  153.0460 O   0  0  0  0  0  0  0  0  0  0  0  0
  139.3480  138.1780  153.6830 N   0  0  0  0  0  0  0  0  0  0  0  0
  139.9060  138.5260  154.4150 H   0  0  0  0  0  0  0  0  0  0  0  0
  137.6170  137.9140  155.3790 C   0  0  0  0  0  2  0  0  0  0  0  0
  138.4300  136.9840  156.2740 C   0  0  0  0  0  2  0  0  0  0  0  0
  137.6450  135.7510  156.7130 C   0  0  0  0  0  2  0  0  0  0  0  0
  136.1960  136.1260  157.0380 C   0  0  0  0  0  2  0  0  0  0  0  0
  135.2070  135.1510  156.4040 C   0  0  0  0  0  2  0  0  0  0  0  0
  135.0180  135.4550  154.9170 C   0  0  0  0  0  2  0  0  0  0  0  0
  135.4240  134.2220  152.7630 C   0  0  0  0  0  1  0  0  0  0  0  0
  134.7440  134.1800  154.1220 C   0  0  0  0  0  2  0  0  0  0  0  0
  145.5740  137.7450  152.2320 O   0  0  0  0  0  0  0  0  0  0  0  0
  146.1670  136.6460  152.9150 C   0  0  0  0  0  2  0  0  0  0  0  0
  147.5300  137.1010  153.4400 C   0  0  0  0  0  2  0  0  0  0  0  0
  147.4500  137.4180  154.9270 C   0  0  0  0  0  2  0  0  0  0  0  0
  147.3520  138.9180  155.2060 C   0  0  0  0  0  2  0  0  0  0  0  0
  148.0370  139.6870  154.0740 C   0  0  0  0  0  2  0  0  0  0  0  0
  147.0810  140.3580  153.2220 N   0  0  0  0  0  0  0  0  0  0  0  0
  146.4900  141.5360  153.5290 C   0  0  0  0  0  0  0  0  0  0  0  0
  146.7720  142.3030  154.5140 N   0  0  0  0  0  0  0  0  0  0  0  0
  145.5030  141.8800  152.6850 N   0  0  0  0  0  4  0  0  0  0  0  0
  146.8460  139.9310  152.3660 H   0  0  0  0  0  0  0  0  0  0  0  0
  147.4940  142.0580  155.1370 H   0  0  0  0  0  0  0  0  0  0  0  0
  146.2680  143.1360  154.6480 H   0  0  0  0  0  0  0  0  0  0  0  0
  145.2790  141.2960  151.9240 H   0  0  0  0  0  0  0  0  0  0  0  0
  145.0040  142.7170  152.8280 H   0  0  0  0  0  0  0  0  0  0  0  0
  1  9  1  0  0  0  0
  1  6  1  0  0  0  0
  2  1  2  0  0  0  0
  3  2  1  0  0  0  0
  3  4  2  0  0  0  0
  4 22  1  0  0  0  0
  4  5  1  0  0  0  0
  5  6  2  0  0  0  0
  5  7  1  0  0  0  0
  7  8  1  0  0  0  0
  9 12  1  0  0  0  0
 10 14  1  0  0  0  0
 11 10  2  0  0  0  0
 12 10  1  0  0  0  0
 12 13  1  0  0  0  0
 14 15  1  0  0  0  0
 15 16  1  0  0  0  0
 16 17  1  0  0  0  0
 18 17  1  0  0  0  0
 19 18  1  0  0  0  0
 20 21  1  0  0  0  0
 21 19  1  0  0  0  0
 22 23  1  0  0  0  0
 23 24  1  0  0  0  0
 24 25  1  0  0  0  0
 25 26  1  0  0  0  0
 27 26  1  0  0  0  0
 28 29  1  0  0  0  0
 28 27  1  0  0  0  0
 29 30  1  0  0  0  0
 30 34  1  0  0  0  0
 30 33  1  0  0  0  0
 31 36  1  0  0  0  0
 31 29  2  0  0  0  0
 32 28  1  0  0  0  0
 35 31  1  0  0  0  0
M  END
>  <MODEL>
9

>  <REMARK>
 VINA RESULT:    -6.674      3.224      5.730
 INTER + INTRA:         -14.678
 INTER:                 -12.548
 INTRA:                  -2.130
 UNBOUND:                -1.371
  Name = CHEMBL5267439
  19 active torsions:
  status: ('A' for Active; 'I' for Inactive)
    1  A    between atoms: C_1  and  C_2
    2  A    between atoms: C_2  and  C_3
    3  A    between atoms: C_3  and  C_4
    4  A    between atoms: C_4  and  C_5
    5  A    between atoms: C_5  and  C_6
    6  A    between atoms: C_6  and  C_7
    7  A    between atoms: C_7  and  C_8
    8  A    between atoms: C_8  and  C_9
    9  A    between atoms: N_11  and  C_12
   10  A    between atoms: C_12  and  C_13
   11  A    between atoms: C_16  and  O_17
   12  A    between atoms: O_17  and  C_18
   13  A    between atoms: C_18  and  C_19
   14  A    between atoms: C_19  and  C_20
   15  A    between atoms: C_20  and  C_21
   16  A    between atoms: C_21  and  C_22
   17  A    between atoms: C_22  and  N_23
   18  A    between atoms: C_27  and  O_28
   19  A    between atoms: O_28  and  C_29
                            x       y       z     vdW  Elec       q    Type
                         _______ _______ _______ _____ _____    ______ ____

>  <TORSDO>
F 17

>  <SCORE>
-6.674

>  <RMSD_LB>
3.224

>  <RMSD_UB>
5.730

$$$$
