CHEMBL420236
 OpenBabel10172500023D

 25 25  0  0  0  0  0  0  0  0999 V2000
  146.8990  140.0560  154.6530 N   0  0  0  0  0  0  0  0  0  0  0  0
  147.3920  141.2570  154.1910 C   0  0  0  0  0  0  0  0  0  0  0  0
  148.5690  141.5940  154.3070 O   0  0  0  0  0  0  0  0  0  0  0  0
  145.9480  139.8440  154.5190 H   0  0  0  0  0  0  0  0  0  0  0  0
  147.7480  139.0980  155.3310 C   0  0  0  0  0  2  0  0  0  0  0  0
  147.9950  137.8560  154.4790 C   0  0  0  0  0  2  0  0  0  0  0  0
  146.6750  137.1570  154.1520 C   0  0  0  0  0  2  0  0  0  0  0  0
  146.3140  137.3040  152.6760 C   0  0  0  0  0  2  0  0  0  0  0  0
  144.8290  137.0260  152.4440 C   0  0  0  0  0  2  0  0  0  0  0  0
  143.9630  138.1050  153.0930 C   0  0  0  0  0  2  0  0  0  0  0  0
  142.7220  137.5040  153.7530 C   0  0  0  0  0  2  0  0  0  0  0  0
  141.4490  138.0300  153.0960 C   0  0  0  0  0  2  0  0  0  0  0  0
  140.2540  137.7340  150.9150 C   0  0  0  0  0  2  0  0  0  0  0  0
  141.1630  137.3190  151.8070 C   0  0  0  0  0  3  0  0  0  0  0  0
  146.3580  142.1550  153.5360 C   0  0  0  0  0  2  0  0  0  0  0  0
  146.2030  141.9110  152.0540 C   0  0  0  0  0  0  0  0  0  0  0  0
  146.9950  142.5990  151.1300 C   0  0  0  0  0  3  0  0  0  0  0  0
  146.8890  142.3280  149.7650 C   0  0  0  0  0  3  0  0  0  0  0  0
  145.9940  141.3580  149.3050 C   0  0  0  0  0  0  0  0  0  0  0  0
  145.1830  140.6610  150.2070 C   0  0  0  0  0  0  0  0  0  0  0  0
  145.3000  140.9480  151.5780 C   0  0  0  0  0  3  0  0  0  0  0  0
  145.9450  141.1160  147.9600 O   0  0  0  0  0  0  0  0  0  0  0  0
  146.3980  140.3790  147.5990 H   0  0  0  0  0  0  0  0  0  0  0  0
  144.2570  139.6880  149.9440 O   0  0  0  0  0  0  0  0  0  0  0  0
  142.9260  140.0930  149.6620 C   0  0  0  0  0  1  0  0  0  0  0  0
  1  5  1  0  0  0  0
  2  3  2  0  0  0  0
  2  1  1  0  0  0  0
  4  1  1  0  0  0  0
  6  5  1  0  0  0  0
  7  6  1  0  0  0  0
  8  7  1  0  0  0  0
  9  8  1  0  0  0  0
  9 10  1  0  0  0  0
 10 11  1  0  0  0  0
 12 11  1  0  0  0  0
 13 14  2  0  0  0  0
 14 12  1  0  0  0  0
 15  2  1  0  0  0  0
 16 15  1  0  0  0  0
 17 16  2  0  0  0  0
 18 17  1  0  0  0  0
 19 18  2  0  0  0  0
 19 20  1  0  0  0  0
 20 21  2  0  0  0  0
 21 16  1  0  0  0  0
 22 19  1  0  0  0  0
 23 22  1  0  0  0  0
 24 20  1  0  0  0  0
 25 24  1  0  0  0  0
M  END
>  <MODEL>
1

>  <REMARK>
 VINA RESULT:    -6.576      0.000      0.000
 INTER + INTRA:         -11.862
 INTER:                 -10.327
 INTRA:                  -1.536
 UNBOUND:                -0.481
  Name = CHEMBL420236
  14 active torsions:
  status: ('A' for Active; 'I' for Inactive)
    1  A    between atoms: C_2  and  C_3
    2  A    between atoms: C_3  and  C_4
    3  A    between atoms: C_4  and  C_5
    4  A    between atoms: C_5  and  C_6
    5  A    between atoms: C_6  and  C_7
    6  A    between atoms: C_7  and  C_8
    7  A    between atoms: C_8  and  C_9
    8  A    between atoms: C_9  and  C_10
    9  A    between atoms: C_10  and  N_11
   10  A    between atoms: C_12  and  C_14
   11  A    between atoms: C_14  and  C_15
   12  A    between atoms: C_18  and  O_19
   13  A    between atoms: C_20  and  O_21
   14  A    between atoms: O_21  and  C_22
                            x       y       z     vdW  Elec       q    Type
                         _______ _______ _______ _____ _____    ______ ____

>  <TORSDO>
F 13

>  <SCORE>
-6.576

>  <RMSD_LB>
0.000

>  <RMSD_UB>
0.000

$$$$
CHEMBL420236
 OpenBabel10172500023D

 25 25  0  0  0  0  0  0  0  0999 V2000
  139.2060  137.6510  155.7880 N   0  0  0  0  0  0  0  0  0  0  0  0
  138.6300  138.5230  154.8900 C   0  0  0  0  0  0  0  0  0  0  0  0
  137.4770  138.9370  154.9950 O   0  0  0  0  0  0  0  0  0  0  0  0
  140.1380  137.3670  155.6510 H   0  0  0  0  0  0  0  0  0  0  0  0
  138.4730  137.1440  156.9290 C   0  0  0  0  0  2  0  0  0  0  0  0
  137.8730  135.7670  156.6520 C   0  0  0  0  0  2  0  0  0  0  0  0
  136.3680  135.8760  156.4060 C   0  0  0  0  0  2  0  0  0  0  0  0
  136.0200  135.6240  154.9420 C   0  0  0  0  0  2  0  0  0  0  0  0
  134.8280  134.6750  154.8170 C   0  0  0  0  0  2  0  0  0  0  0  0
  134.4270  134.4890  153.3540 C   0  0  0  0  0  2  0  0  0  0  0  0
  135.6450  134.2300  152.4690 C   0  0  0  0  0  2  0  0  0  0  0  0
  135.2460  134.1930  150.9950 C   0  0  0  0  0  2  0  0  0  0  0  0
  132.9870  133.6810  150.0450 C   0  0  0  0  0  2  0  0  0  0  0  0
  134.0500  133.3160  150.7730 C   0  0  0  0  0  3  0  0  0  0  0  0
  139.5290  138.9270  153.7360 C   0  0  0  0  0  2  0  0  0  0  0  0
  139.3470  138.0740  152.5040 C   0  0  0  0  0  0  0  0  0  0  0  0
  138.0750  137.6460  152.1120 C   0  0  0  0  0  3  0  0  0  0  0  0
  137.9050  136.9070  150.9400 C   0  0  0  0  0  3  0  0  0  0  0  0
  139.0060  136.5920  150.1390 C   0  0  0  0  0  0  0  0  0  0  0  0
  140.2910  137.0000  150.5110 C   0  0  0  0  0  0  0  0  0  0  0  0
  140.4450  137.7410  151.6950 C   0  0  0  0  0  3  0  0  0  0  0  0
  138.7820  135.8850  148.9900 O   0  0  0  0  0  0  0  0  0  0  0  0
  138.6310  134.9610  149.0290 H   0  0  0  0  0  0  0  0  0  0  0  0
  141.4760  136.7860  149.8590 O   0  0  0  0  0  0  0  0  0  0  0  0
  142.6810  137.0230  150.5720 C   0  0  0  0  0  1  0  0  0  0  0  0
  1  5  1  0  0  0  0
  2  3  2  0  0  0  0
  2  1  1  0  0  0  0
  4  1  1  0  0  0  0
  6  5  1  0  0  0  0
  7  6  1  0  0  0  0
  8  7  1  0  0  0  0
  9  8  1  0  0  0  0
 10  9  1  0  0  0  0
 11 10  1  0  0  0  0
 12 11  1  0  0  0  0
 13 14  2  0  0  0  0
 14 12  1  0  0  0  0
 15  2  1  0  0  0  0
 16 15  1  0  0  0  0
 17 16  1  0  0  0  0
 18 17  2  0  0  0  0
 19 20  2  0  0  0  0
 19 18  1  0  0  0  0
 20 21  1  0  0  0  0
 21 16  2  0  0  0  0
 22 23  1  0  0  0  0
 22 19  1  0  0  0  0
 24 20  1  0  0  0  0
 24 25  1  0  0  0  0
M  END
>  <MODEL>
2

>  <REMARK>
 VINA RESULT:    -6.492      5.571      8.774
 INTER + INTRA:         -11.717
 INTER:                 -10.334
 INTRA:                  -1.383
 UNBOUND:                -0.481
  Name = CHEMBL420236
  14 active torsions:
  status: ('A' for Active; 'I' for Inactive)
    1  A    between atoms: C_2  and  C_3
    2  A    between atoms: C_3  and  C_4
    3  A    between atoms: C_4  and  C_5
    4  A    between atoms: C_5  and  C_6
    5  A    between atoms: C_6  and  C_7
    6  A    between atoms: C_7  and  C_8
    7  A    between atoms: C_8  and  C_9
    8  A    between atoms: C_9  and  C_10
    9  A    between atoms: C_10  and  N_11
   10  A    between atoms: C_12  and  C_14
   11  A    between atoms: C_14  and  C_15
   12  A    between atoms: C_18  and  O_19
   13  A    between atoms: C_20  and  O_21
   14  A    between atoms: O_21  and  C_22
                            x       y       z     vdW  Elec       q    Type
                         _______ _______ _______ _____ _____    ______ ____

>  <TORSDO>
F 13

>  <SCORE>
-6.492

>  <RMSD_LB>
5.571

>  <RMSD_UB>
8.774

$$$$
CHEMBL420236
 OpenBabel10172500023D

 25 25  0  0  0  0  0  0  0  0999 V2000
  147.0900  140.2270  154.5690 N   0  0  0  0  0  0  0  0  0  0  0  0
  147.4520  141.4750  154.1110 C   0  0  0  0  0  0  0  0  0  0  0  0
  148.5910  141.9270  154.2110 O   0  0  0  0  0  0  0  0  0  0  0  0
  146.1630  139.9210  154.4480 H   0  0  0  0  0  0  0  0  0  0  0  0
  148.0420  139.3540  155.2230 C   0  0  0  0  0  2  0  0  0  0  0  0
  147.7250  137.8810  154.9750 C   0  0  0  0  0  2  0  0  0  0  0  0
  148.5070  136.9920  155.9420 C   0  0  0  0  0  2  0  0  0  0  0  0
  148.4140  137.5060  157.3770 C   0  0  0  0  0  2  0  0  0  0  0  0
  149.1970  136.6070  158.3330 C   0  0  0  0  0  2  0  0  0  0  0  0
  148.9320  135.1320  158.0390 C   0  0  0  0  0  2  0  0  0  0  0  0
  149.9240  134.2280  158.7700 C   0  0  0  0  0  2  0  0  0  0  0  0
  150.8730  133.5540  157.7830 C   0  0  0  0  0  2  0  0  0  0  0  0
  152.2540  135.2150  156.5160 C   0  0  0  0  0  2  0  0  0  0  0  0
  152.1030  134.3810  157.5520 C   0  0  0  0  0  3  0  0  0  0  0  0
  146.3220  142.2690  153.4810 C   0  0  0  0  0  2  0  0  0  0  0  0
  146.0670  141.9120  152.0370 C   0  0  0  0  0  0  0  0  0  0  0  0
  146.8250  142.4870  151.0130 C   0  0  0  0  0  3  0  0  0  0  0  0
  146.6250  142.1090  149.6840 C   0  0  0  0  0  3  0  0  0  0  0  0
  145.6680  141.1430  149.3620 C   0  0  0  0  0  0  0  0  0  0  0  0
  144.8900  140.5570  150.3660 C   0  0  0  0  0  0  0  0  0  0  0  0
  145.1020  140.9500  151.6980 C   0  0  0  0  0  3  0  0  0  0  0  0
  145.5270  140.7920  148.0480 O   0  0  0  0  0  0  0  0  0  0  0  0
  144.7350  140.3900  147.7510 H   0  0  0  0  0  0  0  0  0  0  0  0
  143.9140  139.6040  150.2410 O   0  0  0  0  0  0  0  0  0  0  0  0
  142.5760  140.0410  150.0560 C   0  0  0  0  0  1  0  0  0  0  0  0
  1  5  1  0  0  0  0
  2  3  2  0  0  0  0
  2  1  1  0  0  0  0
  4  1  1  0  0  0  0
  6  5  1  0  0  0  0
  6  7  1  0  0  0  0
  7  8  1  0  0  0  0
  8  9  1  0  0  0  0
 10  9  1  0  0  0  0
 10 11  1  0  0  0  0
 12 11  1  0  0  0  0
 13 14  2  0  0  0  0
 14 12  1  0  0  0  0
 15  2  1  0  0  0  0
 16 15  1  0  0  0  0
 17 16  2  0  0  0  0
 18 17  1  0  0  0  0
 19 18  2  0  0  0  0
 19 20  1  0  0  0  0
 20 21  2  0  0  0  0
 21 16  1  0  0  0  0
 22 19  1  0  0  0  0
 23 22  1  0  0  0  0
 24 20  1  0  0  0  0
 25 24  1  0  0  0  0
M  END
>  <MODEL>
3

>  <REMARK>
 VINA RESULT:    -6.218      2.884      5.551
 INTER + INTRA:         -11.244
 INTER:                 -10.288
 INTRA:                  -0.956
 UNBOUND:                -0.481
  Name = CHEMBL420236
  14 active torsions:
  status: ('A' for Active; 'I' for Inactive)
    1  A    between atoms: C_2  and  C_3
    2  A    between atoms: C_3  and  C_4
    3  A    between atoms: C_4  and  C_5
    4  A    between atoms: C_5  and  C_6
    5  A    between atoms: C_6  and  C_7
    6  A    between atoms: C_7  and  C_8
    7  A    between atoms: C_8  and  C_9
    8  A    between atoms: C_9  and  C_10
    9  A    between atoms: C_10  and  N_11
   10  A    between atoms: C_12  and  C_14
   11  A    between atoms: C_14  and  C_15
   12  A    between atoms: C_18  and  O_19
   13  A    between atoms: C_20  and  O_21
   14  A    between atoms: O_21  and  C_22
                            x       y       z     vdW  Elec       q    Type
                         _______ _______ _______ _____ _____    ______ ____

>  <TORSDO>
F 13

>  <SCORE>
-6.218

>  <RMSD_LB>
2.884

>  <RMSD_UB>
5.551

$$$$
CHEMBL420236
 OpenBabel10172500023D

 25 25  0  0  0  0  0  0  0  0999 V2000
  138.9000  138.3130  155.2010 N   0  0  0  0  0  0  0  0  0  0  0  0
  139.1290  137.6490  156.3860 C   0  0  0  0  0  0  0  0  0  0  0  0
  140.1660  137.0320  156.6240 O   0  0  0  0  0  0  0  0  0  0  0  0
  138.0520  138.7980  155.0770 H   0  0  0  0  0  0  0  0  0  0  0  0
  139.8760  138.3170  154.1320 C   0  0  0  0  0  2  0  0  0  0  0  0
  139.2620  138.7510  152.8030 C   0  0  0  0  0  2  0  0  0  0  0  0
  139.2130  137.5770  151.8240 C   0  0  0  0  0  2  0  0  0  0  0  0
  137.8090  137.3750  151.2610 C   0  0  0  0  0  2  0  0  0  0  0  0
  136.9100  136.6620  152.2720 C   0  0  0  0  0  2  0  0  0  0  0  0
  135.6290  136.1600  151.6070 C   0  0  0  0  0  2  0  0  0  0  0  0
  135.5420  134.6350  151.6400 C   0  0  0  0  0  2  0  0  0  0  0  0
  135.1390  134.0860  150.2730 C   0  0  0  0  0  2  0  0  0  0  0  0
  132.6520  133.8210  150.3910 C   0  0  0  0  0  2  0  0  0  0  0  0
  133.8770  133.2810  150.3560 C   0  0  0  0  0  3  0  0  0  0  0  0
  137.9860  137.7210  157.3820 C   0  0  0  0  0  2  0  0  0  0  0  0
  136.8830  136.7280  157.1050 C   0  0  0  0  0  0  0  0  0  0  0  0
  136.6290  136.2870  155.8030 C   0  0  0  0  0  3  0  0  0  0  0  0
  135.6470  135.3250  155.5590 C   0  0  0  0  0  3  0  0  0  0  0  0
  134.9110  134.7840  156.6170 C   0  0  0  0  0  0  0  0  0  0  0  0
  135.1390  135.2130  157.9280 C   0  0  0  0  0  0  0  0  0  0  0  0
  136.1290  136.1840  158.1570 C   0  0  0  0  0  3  0  0  0  0  0  0
  133.9770  133.8290  156.3260 O   0  0  0  0  0  0  0  0  0  0  0  0
  134.1750  132.9220  156.4570 H   0  0  0  0  0  0  0  0  0  0  0  0
  134.5220  134.8020  159.0790 O   0  0  0  0  0  0  0  0  0  0  0  0
  134.9390  135.3870  160.3050 C   0  0  0  0  0  1  0  0  0  0  0  0
  1  2  1  0  0  0  0
  2  3  2  0  0  0  0
  2 15  1  0  0  0  0
  4  1  1  0  0  0  0
  5  1  1  0  0  0  0
  6  5  1  0  0  0  0
  7  6  1  0  0  0  0
  8  7  1  0  0  0  0
  8  9  1  0  0  0  0
 10 11  1  0  0  0  0
 10  9  1  0  0  0  0
 12 14  1  0  0  0  0
 12 11  1  0  0  0  0
 14 13  2  0  0  0  0
 16 15  1  0  0  0  0
 16 21  1  0  0  0  0
 17 16  2  0  0  0  0
 18 17  1  0  0  0  0
 18 19  2  0  0  0  0
 19 20  1  0  0  0  0
 20 21  2  0  0  0  0
 20 24  1  0  0  0  0
 22 23  1  0  0  0  0
 22 19  1  0  0  0  0
 24 25  1  0  0  0  0
M  END
>  <MODEL>
4

>  <REMARK>
 VINA RESULT:    -6.214      7.349     11.013
 INTER + INTRA:         -11.237
 INTER:                 -10.310
 INTRA:                  -0.927
 UNBOUND:                -0.481
  Name = CHEMBL420236
  14 active torsions:
  status: ('A' for Active; 'I' for Inactive)
    1  A    between atoms: C_2  and  C_3
    2  A    between atoms: C_3  and  C_4
    3  A    between atoms: C_4  and  C_5
    4  A    between atoms: C_5  and  C_6
    5  A    between atoms: C_6  and  C_7
    6  A    between atoms: C_7  and  C_8
    7  A    between atoms: C_8  and  C_9
    8  A    between atoms: C_9  and  C_10
    9  A    between atoms: C_10  and  N_11
   10  A    between atoms: C_12  and  C_14
   11  A    between atoms: C_14  and  C_15
   12  A    between atoms: C_18  and  O_19
   13  A    between atoms: C_20  and  O_21
   14  A    between atoms: O_21  and  C_22
                            x       y       z     vdW  Elec       q    Type
                         _______ _______ _______ _____ _____    ______ ____

>  <TORSDO>
F 13

>  <SCORE>
-6.214

>  <RMSD_LB>
7.349

>  <RMSD_UB>
11.013

$$$$
CHEMBL420236
 OpenBabel10172500023D

 25 25  0  0  0  0  0  0  0  0999 V2000
  134.1710  135.2450  147.6750 N   0  0  0  0  0  0  0  0  0  0  0  0
  134.2700  136.5660  148.0520 C   0  0  0  0  0  0  0  0  0  0  0  0
  133.3550  137.1840  148.5940 O   0  0  0  0  0  0  0  0  0  0  0  0
  134.9450  134.8060  147.2550 H   0  0  0  0  0  0  0  0  0  0  0  0
  132.9550  134.4860  147.8810 C   0  0  0  0  0  2  0  0  0  0  0  0
  133.2480  133.0450  148.2930 C   0  0  0  0  0  2  0  0  0  0  0  0
  134.2700  133.0080  149.4290 C   0  0  0  0  0  2  0  0  0  0  0  0
  133.5910  133.0500  150.7950 C   0  0  0  0  0  2  0  0  0  0  0  0
  133.9820  134.3130  151.5630 C   0  0  0  0  0  2  0  0  0  0  0  0
  135.0830  134.0160  152.5790 C   0  0  0  0  0  2  0  0  0  0  0  0
  134.6630  134.4170  153.9930 C   0  0  0  0  0  2  0  0  0  0  0  0
  135.0460  135.8670  154.2820 C   0  0  0  0  0  2  0  0  0  0  0  0
  136.8780  135.8170  155.9870 C   0  0  0  0  0  2  0  0  0  0  0  0
  136.4750  135.9810  154.7210 C   0  0  0  0  0  3  0  0  0  0  0  0
  135.6030  137.2170  147.7310 C   0  0  0  0  0  2  0  0  0  0  0  0
  136.4910  137.3980  148.9390 C   0  0  0  0  0  0  0  0  0  0  0  0
  136.2930  136.6330  150.0920 C   0  0  0  0  0  3  0  0  0  0  0  0
  137.1530  136.7620  151.1840 C   0  0  0  0  0  3  0  0  0  0  0  0
  138.2290  137.6530  151.1340 C   0  0  0  0  0  0  0  0  0  0  0  0
  138.4450  138.4360  149.9950 C   0  0  0  0  0  0  0  0  0  0  0  0
  137.5690  138.2970  148.9060 C   0  0  0  0  0  3  0  0  0  0  0  0
  139.0540  137.7250  152.2220 O   0  0  0  0  0  0  0  0  0  0  0  0
  138.9730  137.0990  152.9150 H   0  0  0  0  0  0  0  0  0  0  0  0
  139.4350  139.3540  149.7680 O   0  0  0  0  0  0  0  0  0  0  0  0
  139.1760  140.7110  150.1010 C   0  0  0  0  0  1  0  0  0  0  0  0
  1  5  1  0  0  0  0
  1  2  1  0  0  0  0
  2  3  2  0  0  0  0
  4  1  1  0  0  0  0
  5  6  1  0  0  0  0
  6  7  1  0  0  0  0
  7  8  1  0  0  0  0
  8  9  1  0  0  0  0
  9 10  1  0  0  0  0
 10 11  1  0  0  0  0
 11 12  1  0  0  0  0
 12 14  1  0  0  0  0
 14 13  2  0  0  0  0
 15  2  1  0  0  0  0
 15 16  1  0  0  0  0
 16 17  1  0  0  0  0
 17 18  2  0  0  0  0
 19 18  1  0  0  0  0
 19 22  1  0  0  0  0
 20 19  2  0  0  0  0
 21 16  2  0  0  0  0
 21 20  1  0  0  0  0
 22 23  1  0  0  0  0
 24 20  1  0  0  0  0
 24 25  1  0  0  0  0
M  END
>  <MODEL>
5

>  <REMARK>
 VINA RESULT:    -6.165      7.747     11.442
 INTER + INTRA:         -11.151
 INTER:                  -9.571
 INTRA:                  -1.580
 UNBOUND:                -0.481
  Name = CHEMBL420236
  14 active torsions:
  status: ('A' for Active; 'I' for Inactive)
    1  A    between atoms: C_2  and  C_3
    2  A    between atoms: C_3  and  C_4
    3  A    between atoms: C_4  and  C_5
    4  A    between atoms: C_5  and  C_6
    5  A    between atoms: C_6  and  C_7
    6  A    between atoms: C_7  and  C_8
    7  A    between atoms: C_8  and  C_9
    8  A    between atoms: C_9  and  C_10
    9  A    between atoms: C_10  and  N_11
   10  A    between atoms: C_12  and  C_14
   11  A    between atoms: C_14  and  C_15
   12  A    between atoms: C_18  and  O_19
   13  A    between atoms: C_20  and  O_21
   14  A    between atoms: O_21  and  C_22
                            x       y       z     vdW  Elec       q    Type
                         _______ _______ _______ _____ _____    ______ ____

>  <TORSDO>
F 13

>  <SCORE>
-6.165

>  <RMSD_LB>
7.747

>  <RMSD_UB>
11.442

$$$$
CHEMBL420236
 OpenBabel10172500023D

 25 25  0  0  0  0  0  0  0  0999 V2000
  144.3780  138.7140  149.7260 N   0  0  0  0  0  0  0  0  0  0  0  0
  144.0650  137.3770  149.6120 C   0  0  0  0  0  0  0  0  0  0  0  0
  144.1440  136.7530  148.5560 O   0  0  0  0  0  0  0  0  0  0  0  0
  144.3030  139.1520  150.6040 H   0  0  0  0  0  0  0  0  0  0  0  0
  144.8160  139.4910  148.5850 C   0  0  0  0  0  2  0  0  0  0  0  0
  145.7960  140.5900  148.9890 C   0  0  0  0  0  2  0  0  0  0  0  0
  145.8910  140.6930  150.5110 C   0  0  0  0  0  2  0  0  0  0  0  0
  145.2640  141.9860  151.0260 C   0  0  0  0  0  2  0  0  0  0  0  0
  145.9010  142.4170  152.3470 C   0  0  0  0  0  2  0  0  0  0  0  0
  147.3090  141.8420  152.4890 C   0  0  0  0  0  2  0  0  0  0  0  0
  147.7950  141.9040  153.9370 C   0  0  0  0  0  2  0  0  0  0  0  0
  148.4650  140.5930  154.3410 C   0  0  0  0  0  2  0  0  0  0  0  0
  146.4840  139.1550  154.8720 C   0  0  0  0  0  2  0  0  0  0  0  0
  147.5560  139.4210  154.1150 C   0  0  0  0  0  3  0  0  0  0  0  0
  143.5910  136.7270  150.9000 C   0  0  0  0  0  2  0  0  0  0  0  0
  142.2680  137.2630  151.3930 C   0  0  0  0  0  0  0  0  0  0  0  0
  141.1050  137.1040  150.6340 C   0  0  0  0  0  3  0  0  0  0  0  0
  139.8750  137.5480  151.1210 C   0  0  0  0  0  3  0  0  0  0  0  0
  139.7900  138.1510  152.3790 C   0  0  0  0  0  0  0  0  0  0  0  0
  140.9390  138.3300  153.1560 C   0  0  0  0  0  0  0  0  0  0  0  0
  142.1710  137.8800  152.6500 C   0  0  0  0  0  3  0  0  0  0  0  0
  138.5570  138.5490  152.8180 O   0  0  0  0  0  0  0  0  0  0  0  0
  138.3480  138.5080  153.7310 H   0  0  0  0  0  0  0  0  0  0  0  0
  141.0490  138.8950  154.3980 O   0  0  0  0  0  0  0  0  0  0  0  0
  140.7760  138.0790  155.5280 C   0  0  0  0  0  1  0  0  0  0  0  0
  1  4  1  0  0  0  0
  2  1  1  0  0  0  0
  2 15  1  0  0  0  0
  3  2  2  0  0  0  0
  5  6  1  0  0  0  0
  5  1  1  0  0  0  0
  6  7  1  0  0  0  0
  7  8  1  0  0  0  0
  8  9  1  0  0  0  0
  9 10  1  0  0  0  0
 10 11  1  0  0  0  0
 11 12  1  0  0  0  0
 14 12  1  0  0  0  0
 14 13  2  0  0  0  0
 15 16  1  0  0  0  0
 16 21  1  0  0  0  0
 17 18  1  0  0  0  0
 17 16  2  0  0  0  0
 18 19  2  0  0  0  0
 19 22  1  0  0  0  0
 19 20  1  0  0  0  0
 20 24  1  0  0  0  0
 21 20  2  0  0  0  0
 22 23  1  0  0  0  0
 24 25  1  0  0  0  0
M  END
>  <MODEL>
6

>  <REMARK>
 VINA RESULT:    -6.154      2.758      6.788
 INTER + INTRA:         -11.132
 INTER:                  -9.818
 INTRA:                  -1.315
 UNBOUND:                -0.481
  Name = CHEMBL420236
  14 active torsions:
  status: ('A' for Active; 'I' for Inactive)
    1  A    between atoms: C_2  and  C_3
    2  A    between atoms: C_3  and  C_4
    3  A    between atoms: C_4  and  C_5
    4  A    between atoms: C_5  and  C_6
    5  A    between atoms: C_6  and  C_7
    6  A    between atoms: C_7  and  C_8
    7  A    between atoms: C_8  and  C_9
    8  A    between atoms: C_9  and  C_10
    9  A    between atoms: C_10  and  N_11
   10  A    between atoms: C_12  and  C_14
   11  A    between atoms: C_14  and  C_15
   12  A    between atoms: C_18  and  O_19
   13  A    between atoms: C_20  and  O_21
   14  A    between atoms: O_21  and  C_22
                            x       y       z     vdW  Elec       q    Type
                         _______ _______ _______ _____ _____    ______ ____

>  <TORSDO>
F 13

>  <SCORE>
-6.154

>  <RMSD_LB>
2.758

>  <RMSD_UB>
6.788

$$$$
CHEMBL420236
 OpenBabel10172500023D

 25 25  0  0  0  0  0  0  0  0999 V2000
  137.5650  137.6880  150.9900 N   0  0  0  0  0  0  0  0  0  0  0  0
  137.1150  136.5410  150.3730 C   0  0  0  0  0  0  0  0  0  0  0  0
  137.6190  136.0830  149.3500 O   0  0  0  0  0  0  0  0  0  0  0  0
  137.1230  137.9970  151.8130 H   0  0  0  0  0  0  0  0  0  0  0  0
  138.6730  138.4520  150.4550 C   0  0  0  0  0  2  0  0  0  0  0  0
  139.4620  139.1550  151.5580 C   0  0  0  0  0  2  0  0  0  0  0  0
  139.7910  138.1810  152.6890 C   0  0  0  0  0  2  0  0  0  0  0  0
  139.7780  138.8750  154.0480 C   0  0  0  0  0  2  0  0  0  0  0  0
  138.9570  138.0800  155.0620 C   0  0  0  0  0  2  0  0  0  0  0  0
  137.7660  137.4000  154.3900 C   0  0  0  0  0  2  0  0  0  0  0  0
  136.8140  136.7920  155.4190 C   0  0  0  0  0  2  0  0  0  0  0  0
  136.1210  135.5550  154.8530 C   0  0  0  0  0  2  0  0  0  0  0  0
  133.8350  134.9500  154.0290 C   0  0  0  0  0  2  0  0  0  0  0  0
  134.7450  135.8770  154.3520 C   0  0  0  0  0  3  0  0  0  0  0  0
  135.9230  135.8870  151.0490 C   0  0  0  0  0  2  0  0  0  0  0  0
  134.9290  135.2980  150.0770 C   0  0  0  0  0  0  0  0  0  0  0  0
  134.7800  133.9130  149.9590 C   0  0  0  0  0  3  0  0  0  0  0  0
  133.8180  133.3740  149.1030 C   0  0  0  0  0  3  0  0  0  0  0  0
  132.9870  134.2150  148.3570 C   0  0  0  0  0  0  0  0  0  0  0  0
  133.1210  135.6040  148.4500 C   0  0  0  0  0  0  0  0  0  0  0  0
  134.0950  136.1300  149.3150 C   0  0  0  0  0  3  0  0  0  0  0  0
  132.0470  133.6360  147.5500 O   0  0  0  0  0  0  0  0  0  0  0  0
  132.2920  132.9500  146.9600 H   0  0  0  0  0  0  0  0  0  0  0  0
  132.4040  136.5740  147.8020 O   0  0  0  0  0  0  0  0  0  0  0  0
  133.0520  137.3040  146.7700 C   0  0  0  0  0  1  0  0  0  0  0  0
  1  4  1  0  0  0  0
  2  1  1  0  0  0  0
  2 15  1  0  0  0  0
  3  2  2  0  0  0  0
  5  1  1  0  0  0  0
  5  6  1  0  0  0  0
  6  7  1  0  0  0  0
  7  8  1  0  0  0  0
  8  9  1  0  0  0  0
 10  9  1  0  0  0  0
 10 11  1  0  0  0  0
 12 11  1  0  0  0  0
 13 14  2  0  0  0  0
 14 12  1  0  0  0  0
 16 15  1  0  0  0  0
 17 16  1  0  0  0  0
 18 17  2  0  0  0  0
 19 20  2  0  0  0  0
 19 18  1  0  0  0  0
 20 21  1  0  0  0  0
 21 16  2  0  0  0  0
 22 19  1  0  0  0  0
 23 22  1  0  0  0  0
 24 20  1  0  0  0  0
 25 24  1  0  0  0  0
M  END
>  <MODEL>
7

>  <REMARK>
 VINA RESULT:    -6.148      7.158     11.134
 INTER + INTRA:         -11.123
 INTER:                  -9.820
 INTRA:                  -1.303
 UNBOUND:                -0.481
  Name = CHEMBL420236
  14 active torsions:
  status: ('A' for Active; 'I' for Inactive)
    1  A    between atoms: C_2  and  C_3
    2  A    between atoms: C_3  and  C_4
    3  A    between atoms: C_4  and  C_5
    4  A    between atoms: C_5  and  C_6
    5  A    between atoms: C_6  and  C_7
    6  A    between atoms: C_7  and  C_8
    7  A    between atoms: C_8  and  C_9
    8  A    between atoms: C_9  and  C_10
    9  A    between atoms: C_10  and  N_11
   10  A    between atoms: C_12  and  C_14
   11  A    between atoms: C_14  and  C_15
   12  A    between atoms: C_18  and  O_19
   13  A    between atoms: C_20  and  O_21
   14  A    between atoms: O_21  and  C_22
                            x       y       z     vdW  Elec       q    Type
                         _______ _______ _______ _____ _____    ______ ____

>  <TORSDO>
F 13

>  <SCORE>
-6.148

>  <RMSD_LB>
7.158

>  <RMSD_UB>
11.134

$$$$
CHEMBL420236
 OpenBabel10172500023D

 25 25  0  0  0  0  0  0  0  0999 V2000
  136.3720  135.0810  151.3630 N   0  0  0  0  0  0  0  0  0  0  0  0
  136.5070  136.3010  151.9880 C   0  0  0  0  0  0  0  0  0  0  0  0
  135.9740  136.5730  153.0620 O   0  0  0  0  0  0  0  0  0  0  0  0
  136.8340  134.9250  150.5080 H   0  0  0  0  0  0  0  0  0  0  0  0
  135.5660  134.0220  151.9330 C   0  0  0  0  0  2  0  0  0  0  0  0
  134.1190  134.0850  151.4480 C   0  0  0  0  0  2  0  0  0  0  0  0
  133.9810  133.4190  150.0790 C   0  0  0  0  0  2  0  0  0  0  0  0
  132.8300  134.0190  149.2770 C   0  0  0  0  0  2  0  0  0  0  0  0
  133.3210  134.5670  147.9380 C   0  0  0  0  0  2  0  0  0  0  0  0
  133.0290  136.0610  147.8170 C   0  0  0  0  0  2  0  0  0  0  0  0
  134.1640  136.9020  148.4010 C   0  0  0  0  0  2  0  0  0  0  0  0
  135.4560  136.6880  147.6180 C   0  0  0  0  0  2  0  0  0  0  0  0
  136.9140  138.7010  147.9200 C   0  0  0  0  0  2  0  0  0  0  0  0
  136.0540  137.9910  147.1790 C   0  0  0  0  0  3  0  0  0  0  0  0
  137.3600  137.3060  151.2340 C   0  0  0  0  0  2  0  0  0  0  0  0
  138.7150  137.5340  151.8590 C   0  0  0  0  0  0  0  0  0  0  0  0
  139.8860  137.3130  151.1280 C   0  0  0  0  0  3  0  0  0  0  0  0
  141.1350  137.5820  151.6920 C   0  0  0  0  0  3  0  0  0  0  0  0
  141.2290  138.0830  152.9930 C   0  0  0  0  0  0  0  0  0  0  0  0
  140.0740  138.3060  153.7500 C   0  0  0  0  0  0  0  0  0  0  0  0
  138.8240  138.0280  153.1690 C   0  0  0  0  0  3  0  0  0  0  0  0
  142.4750  138.3500  153.4890 O   0  0  0  0  0  0  0  0  0  0  0  0
  142.5690  138.7500  154.3310 H   0  0  0  0  0  0  0  0  0  0  0  0
  139.9710  138.7860  155.0270 O   0  0  0  0  0  0  0  0  0  0  0  0
  140.0450  137.8550  156.0980 C   0  0  0  0  0  1  0  0  0  0  0  0
  1  5  1  0  0  0  0
  1  2  1  0  0  0  0
  2  3  2  0  0  0  0
  4  1  1  0  0  0  0
  6  5  1  0  0  0  0
  7  6  1  0  0  0  0
  8  7  1  0  0  0  0
  9  8  1  0  0  0  0
 10  9  1  0  0  0  0
 10 11  1  0  0  0  0
 12 11  1  0  0  0  0
 14 12  1  0  0  0  0
 14 13  2  0  0  0  0
 15 16  1  0  0  0  0
 15  2  1  0  0  0  0
 16 21  1  0  0  0  0
 17 18  1  0  0  0  0
 17 16  2  0  0  0  0
 18 19  2  0  0  0  0
 19 22  1  0  0  0  0
 19 20  1  0  0  0  0
 20 24  1  0  0  0  0
 21 20  2  0  0  0  0
 22 23  1  0  0  0  0
 24 25  1  0  0  0  0
M  END
>  <MODEL>
8

>  <REMARK>
 VINA RESULT:    -5.866      6.002     10.308
 INTER + INTRA:         -10.635
 INTER:                  -9.515
 INTRA:                  -1.120
 UNBOUND:                -0.481
  Name = CHEMBL420236
  14 active torsions:
  status: ('A' for Active; 'I' for Inactive)
    1  A    between atoms: C_2  and  C_3
    2  A    between atoms: C_3  and  C_4
    3  A    between atoms: C_4  and  C_5
    4  A    between atoms: C_5  and  C_6
    5  A    between atoms: C_6  and  C_7
    6  A    between atoms: C_7  and  C_8
    7  A    between atoms: C_8  and  C_9
    8  A    between atoms: C_9  and  C_10
    9  A    between atoms: C_10  and  N_11
   10  A    between atoms: C_12  and  C_14
   11  A    between atoms: C_14  and  C_15
   12  A    between atoms: C_18  and  O_19
   13  A    between atoms: C_20  and  O_21
   14  A    between atoms: O_21  and  C_22
                            x       y       z     vdW  Elec       q    Type
                         _______ _______ _______ _____ _____    ______ ____

>  <TORSDO>
F 13

>  <SCORE>
-5.866

>  <RMSD_LB>
6.002

>  <RMSD_UB>
10.308

$$$$
CHEMBL420236
 OpenBabel10172500023D

 25 25  0  0  0  0  0  0  0  0999 V2000
  138.9740  138.4150  155.3350 N   0  0  0  0  0  0  0  0  0  0  0  0
  139.0440  137.7090  156.5170 C   0  0  0  0  0  0  0  0  0  0  0  0
  140.0240  137.0450  156.8490 O   0  0  0  0  0  0  0  0  0  0  0  0
  138.1630  138.9350  155.1330 H   0  0  0  0  0  0  0  0  0  0  0  0
  140.0640  138.4100  154.3830 C   0  0  0  0  0  2  0  0  0  0  0  0
  139.5610  138.3170  152.9440 C   0  0  0  0  0  2  0  0  0  0  0  0
  140.6050  137.6460  152.0510 C   0  0  0  0  0  2  0  0  0  0  0  0
  142.0120  138.1580  152.3510 C   0  0  0  0  0  2  0  0  0  0  0  0
  142.6530  138.7630  151.1020 C   0  0  0  0  0  2  0  0  0  0  0  0
  143.6330  139.8740  151.4740 C   0  0  0  0  0  2  0  0  0  0  0  0
  144.0460  140.6890  150.2490 C   0  0  0  0  0  2  0  0  0  0  0  0
  145.5640  140.6990  150.0900 C   0  0  0  0  0  2  0  0  0  0  0  0
  147.3400  142.2950  150.8470 C   0  0  0  0  0  2  0  0  0  0  0  0
  146.1300  142.0690  150.3190 C   0  0  0  0  0  3  0  0  0  0  0  0
  137.7990  137.7980  157.3810 C   0  0  0  0  0  2  0  0  0  0  0  0
  136.8180  136.6760  157.1410 C   0  0  0  0  0  0  0  0  0  0  0  0
  136.2590  135.9730  158.2130 C   0  0  0  0  0  3  0  0  0  0  0  0
  135.3090  134.9760  157.9880 C   0  0  0  0  0  3  0  0  0  0  0  0
  134.8990  134.6720  156.6870 C   0  0  0  0  0  0  0  0  0  0  0  0
  135.4480  135.3530  155.5960 C   0  0  0  0  0  0  0  0  0  0  0  0
  136.4050  136.3530  155.8390 C   0  0  0  0  0  3  0  0  0  0  0  0
  133.9490  133.7020  156.5240 O   0  0  0  0  0  0  0  0  0  0  0  0
  134.1390  132.8150  156.7590 H   0  0  0  0  0  0  0  0  0  0  0  0
  135.1720  135.1920  154.2650 O   0  0  0  0  0  0  0  0  0  0  0  0
  133.9660  135.7480  153.7620 C   0  0  0  0  0  1  0  0  0  0  0  0
  1  2  1  0  0  0  0
  2  3  2  0  0  0  0
  2 15  1  0  0  0  0
  4  1  1  0  0  0  0
  5  1  1  0  0  0  0
  6  5  1  0  0  0  0
  7  8  1  0  0  0  0
  7  6  1  0  0  0  0
  9 10  1  0  0  0  0
  9  8  1  0  0  0  0
 11 10  1  0  0  0  0
 12 11  1  0  0  0  0
 12 14  1  0  0  0  0
 14 13  2  0  0  0  0
 16 15  1  0  0  0  0
 16 17  1  0  0  0  0
 18 17  2  0  0  0  0
 19 18  1  0  0  0  0
 20 21  1  0  0  0  0
 20 19  2  0  0  0  0
 21 16  2  0  0  0  0
 22 19  1  0  0  0  0
 22 23  1  0  0  0  0
 24 20  1  0  0  0  0
 25 24  1  0  0  0  0
M  END
>  <MODEL>
9

>  <REMARK>
 VINA RESULT:    -5.820      6.206     10.125
 INTER + INTRA:         -10.555
 INTER:                 -10.073
 INTRA:                  -0.481
 UNBOUND:                -0.481
  Name = CHEMBL420236
  14 active torsions:
  status: ('A' for Active; 'I' for Inactive)
    1  A    between atoms: C_2  and  C_3
    2  A    between atoms: C_3  and  C_4
    3  A    between atoms: C_4  and  C_5
    4  A    between atoms: C_5  and  C_6
    5  A    between atoms: C_6  and  C_7
    6  A    between atoms: C_7  and  C_8
    7  A    between atoms: C_8  and  C_9
    8  A    between atoms: C_9  and  C_10
    9  A    between atoms: C_10  and  N_11
   10  A    between atoms: C_12  and  C_14
   11  A    between atoms: C_14  and  C_15
   12  A    between atoms: C_18  and  O_19
   13  A    between atoms: C_20  and  O_21
   14  A    between atoms: O_21  and  C_22
                            x       y       z     vdW  Elec       q    Type
                         _______ _______ _______ _____ _____    ______ ____

>  <TORSDO>
F 13

>  <SCORE>
-5.820

>  <RMSD_LB>
6.206

>  <RMSD_UB>
10.125

$$$$
