CHEMBL4226064
 OpenBabel10172500493D

 26 26  0  0  0  0  0  0  0  0999 V2000
  138.9960  138.5780  153.9000 C   0  0  0  0  0  0  0  0  0  0  0  0
  139.2900  139.6230  154.4820 O   0  0  0  0  0  0  0  0  0  0  0  0
  138.2860  137.5550  154.4880 N   0  0  0  0  0  0  0  0  0  0  0  0
  138.0360  136.7760  153.9410 H   0  0  0  0  0  0  0  0  0  0  0  0
  139.4170  138.3150  152.4530 C   0  0  0  0  0  2  0  0  0  0  0  0
  138.6150  137.3280  151.8070 O   0  0  0  0  0  0  0  0  0  0  0  0
  137.9390  137.7690  150.7140 C   0  0  0  0  0  0  0  0  0  0  0  0
  138.1400  138.8370  150.1510 O   0  0  0  0  0  0  0  0  0  0  0  0
  136.9280  136.7380  150.2690 C   0  0  0  0  0  2  0  0  0  0  0  0
  136.1740  136.1490  151.4570 C   0  0  0  0  0  2  0  0  0  0  0  0
  136.1510  134.6180  151.4220 C   0  0  0  0  0  2  0  0  0  0  0  0
  134.8000  134.0630  151.8730 C   0  0  0  0  0  2  0  0  0  0  0  0
  133.7700  135.1850  152.0280 C   0  0  0  0  0  2  0  0  0  0  0  0
  132.5360  133.8060  150.3000 C   0  0  0  0  0  1  0  0  0  0  0  0
  132.7810  135.2030  150.8540 C   0  0  0  0  0  2  0  0  0  0  0  0
  137.8930  137.5820  155.8790 C   0  0  0  0  0  2  0  0  0  0  0  0
  136.7730  136.6210  156.1710 C   0  0  0  0  0  0  0  0  0  0  0  0
  136.0130  136.1170  155.1180 C   0  0  0  0  0  3  0  0  0  0  0  0
  134.9680  135.2340  155.3720 C   0  0  0  0  0  3  0  0  0  0  0  0
  134.6970  134.7850  156.6620 C   0  0  0  0  0  0  0  0  0  0  0  0
  135.4200  135.2960  157.7390 C   0  0  0  0  0  0  0  0  0  0  0  0
  136.4560  136.2130  157.4800 C   0  0  0  0  0  3  0  0  0  0  0  0
  133.7200  133.8410  156.8140 O   0  0  0  0  0  0  0  0  0  0  0  0
  133.1180  133.9010  157.5300 H   0  0  0  0  0  0  0  0  0  0  0  0
  135.2430  135.0170  159.0690 O   0  0  0  0  0  0  0  0  0  0  0  0
  134.1120  135.5910  159.7150 C   0  0  0  0  0  1  0  0  0  0  0  0
  1  2  2  0  0  0  0
  1  3  1  0  0  0  0
  3 16  1  0  0  0  0
  4  3  1  0  0  0  0
  5  1  1  0  0  0  0
  6  5  1  0  0  0  0
  7  6  1  0  0  0  0
  8  7  2  0  0  0  0
  9  7  1  0  0  0  0
  9 10  1  0  0  0  0
 11 10  1  0  0  0  0
 11 12  1  0  0  0  0
 12 13  1  0  0  0  0
 14 15  1  0  0  0  0
 15 13  1  0  0  0  0
 16 17  1  0  0  0  0
 17 22  1  0  0  0  0
 18 19  1  0  0  0  0
 18 17  2  0  0  0  0
 19 20  2  0  0  0  0
 20 23  1  0  0  0  0
 20 21  1  0  0  0  0
 21 25  1  0  0  0  0
 22 21  2  0  0  0  0
 23 24  1  0  0  0  0
 25 26  1  0  0  0  0
M  END
>  <MODEL>
1

>  <REMARK>
 VINA RESULT:    -6.040      0.000      0.000
 INTER + INTRA:         -12.045
 INTER:                 -10.566
 INTRA:                  -1.479
 UNBOUND:                -1.592
  Name = CHEMBL4226064
  15 active torsions:
  status: ('A' for Active; 'I' for Inactive)
    1  A    between atoms: C_1  and  C_2
    2  A    between atoms: C_2  and  C_3
    3  A    between atoms: C_3  and  C_4
    4  A    between atoms: C_4  and  C_5
    5  A    between atoms: C_5  and  C_6
    6  A    between atoms: C_6  and  C_7
    7  A    between atoms: C_7  and  C_8
    8  A    between atoms: C_8  and  O_10
    9  A    between atoms: O_10  and  C_11
   10  A    between atoms: C_11  and  C_12
   11  A    between atoms: N_14  and  C_15
   12  A    between atoms: C_15  and  C_16
   13  A    between atoms: C_19  and  O_20
   14  A    between atoms: C_21  and  O_22
   15  A    between atoms: O_22  and  C_23
                            x       y       z     vdW  Elec       q    Type
                         _______ _______ _______ _____ _____    ______ ____

>  <TORSDO>
F 13

>  <SCORE>
-6.040

>  <RMSD_LB>
0.000

>  <RMSD_UB>
0.000

$$$$
CHEMBL4226064
 OpenBabel10172500493D

 26 26  0  0  0  0  0  0  0  0999 V2000
  145.9000  137.0160  151.6320 C   0  0  0  0  0  0  0  0  0  0  0  0
  146.2150  136.5800  150.5240 O   0  0  0  0  0  0  0  0  0  0  0  0
  144.5940  137.2030  152.0310 N   0  0  0  0  0  0  0  0  0  0  0  0
  144.4190  137.4980  152.9540 H   0  0  0  0  0  0  0  0  0  0  0  0
  146.9490  137.4090  152.6740 C   0  0  0  0  0  2  0  0  0  0  0  0
  147.2950  138.7910  152.6280 O   0  0  0  0  0  0  0  0  0  0  0  0
  146.8170  139.5340  153.6600 C   0  0  0  0  0  0  0  0  0  0  0  0
  145.7510  139.3360  154.2290 O   0  0  0  0  0  0  0  0  0  0  0  0
  147.8020  140.6160  154.0310 C   0  0  0  0  0  2  0  0  0  0  0  0
  147.4670  141.9350  153.3410 C   0  0  0  0  0  2  0  0  0  0  0  0
  147.9890  141.9810  151.9020 C   0  0  0  0  0  2  0  0  0  0  0  0
  146.8760  142.3140  150.9080 C   0  0  0  0  0  2  0  0  0  0  0  0
  145.5040  142.2610  151.5840 C   0  0  0  0  0  2  0  0  0  0  0  0
  145.3870  140.3230  149.9590 C   0  0  0  0  0  1  0  0  0  0  0  0
  144.6750  141.0720  151.0760 C   0  0  0  0  0  2  0  0  0  0  0  0
  143.4730  136.9840  151.1450 C   0  0  0  0  0  2  0  0  0  0  0  0
  142.1680  137.3930  151.7710 C   0  0  0  0  0  0  0  0  0  0  0  0
  140.9970  137.3210  151.0200 C   0  0  0  0  0  3  0  0  0  0  0  0
  139.7830  137.7040  151.5810 C   0  0  0  0  0  3  0  0  0  0  0  0
  139.6950  138.1040  152.9120 C   0  0  0  0  0  0  0  0  0  0  0  0
  140.8530  138.2160  153.6790 C   0  0  0  0  0  0  0  0  0  0  0  0
  142.0840  137.8560  153.0970 C   0  0  0  0  0  3  0  0  0  0  0  0
  138.4510  138.3660  153.4160 O   0  0  0  0  0  0  0  0  0  0  0  0
  138.1600  137.9330  154.1930 H   0  0  0  0  0  0  0  0  0  0  0  0
  140.9560  138.6540  154.9740 O   0  0  0  0  0  0  0  0  0  0  0  0
  140.5750  137.7510  156.0050 C   0  0  0  0  0  1  0  0  0  0  0  0
  1  3  1  0  0  0  0
  1  5  1  0  0  0  0
  2  1  2  0  0  0  0
  3  4  1  0  0  0  0
  6  5  1  0  0  0  0
  6  7  1  0  0  0  0
  7  9  1  0  0  0  0
  7  8  2  0  0  0  0
 10  9  1  0  0  0  0
 11 10  1  0  0  0  0
 12 13  1  0  0  0  0
 12 11  1  0  0  0  0
 14 15  1  0  0  0  0
 15 13  1  0  0  0  0
 16 17  1  0  0  0  0
 16  3  1  0  0  0  0
 17 22  1  0  0  0  0
 18 19  1  0  0  0  0
 18 17  2  0  0  0  0
 19 20  2  0  0  0  0
 20 23  1  0  0  0  0
 20 21  1  0  0  0  0
 21 25  1  0  0  0  0
 22 21  2  0  0  0  0
 23 24  1  0  0  0  0
 25 26  1  0  0  0  0
M  END
>  <MODEL>
2

>  <REMARK>
 VINA RESULT:    -5.868      6.097      9.775
 INTER + INTRA:         -11.749
 INTER:                 -10.123
 INTRA:                  -1.626
 UNBOUND:                -1.592
  Name = CHEMBL4226064
  15 active torsions:
  status: ('A' for Active; 'I' for Inactive)
    1  A    between atoms: C_1  and  C_2
    2  A    between atoms: C_2  and  C_3
    3  A    between atoms: C_3  and  C_4
    4  A    between atoms: C_4  and  C_5
    5  A    between atoms: C_5  and  C_6
    6  A    between atoms: C_6  and  C_7
    7  A    between atoms: C_7  and  C_8
    8  A    between atoms: C_8  and  O_10
    9  A    between atoms: O_10  and  C_11
   10  A    between atoms: C_11  and  C_12
   11  A    between atoms: N_14  and  C_15
   12  A    between atoms: C_15  and  C_16
   13  A    between atoms: C_19  and  O_20
   14  A    between atoms: C_21  and  O_22
   15  A    between atoms: O_22  and  C_23
                            x       y       z     vdW  Elec       q    Type
                         _______ _______ _______ _____ _____    ______ ____

>  <TORSDO>
F 13

>  <SCORE>
-5.868

>  <RMSD_LB>
6.097

>  <RMSD_UB>
9.775

$$$$
CHEMBL4226064
 OpenBabel10172500493D

 26 26  0  0  0  0  0  0  0  0999 V2000
  147.7220  137.6760  152.9150 C   0  0  0  0  0  0  0  0  0  0  0  0
  147.6640  137.0620  151.8500 O   0  0  0  0  0  0  0  0  0  0  0  0
  146.8050  137.5200  153.9320 N   0  0  0  0  0  0  0  0  0  0  0  0
  146.9510  138.0000  154.7800 H   0  0  0  0  0  0  0  0  0  0  0  0
  148.8270  138.6940  153.2020 C   0  0  0  0  0  2  0  0  0  0  0  0
  148.5450  139.9900  152.6780 O   0  0  0  0  0  0  0  0  0  0  0  0
  148.4030  140.9660  153.6130 C   0  0  0  0  0  0  0  0  0  0  0  0
  149.0340  141.0270  154.6610 O   0  0  0  0  0  0  0  0  0  0  0  0
  147.3860  141.9850  153.1610 C   0  0  0  0  0  2  0  0  0  0  0  0
  146.0790  141.3200  152.7400 C   0  0  0  0  0  2  0  0  0  0  0  0
  145.3940  142.0690  151.5940 C   0  0  0  0  0  2  0  0  0  0  0  0
  144.9840  141.1220  150.4660 C   0  0  0  0  0  2  0  0  0  0  0  0
  145.7730  139.8130  150.5350 C   0  0  0  0  0  2  0  0  0  0  0  0
  146.5960  138.4370  148.5760 C   0  0  0  0  0  1  0  0  0  0  0  0
  146.7880  139.7090  149.3880 C   0  0  0  0  0  2  0  0  0  0  0  0
  145.6370  136.6780  153.8020 C   0  0  0  0  0  2  0  0  0  0  0  0
  144.4660  137.4210  153.2170 C   0  0  0  0  0  0  0  0  0  0  0  0
  143.9470  138.5200  153.8970 C   0  0  0  0  0  3  0  0  0  0  0  0
  142.8580  139.2120  153.3740 C   0  0  0  0  0  3  0  0  0  0  0  0
  142.3060  138.8700  152.1430 C   0  0  0  0  0  0  0  0  0  0  0  0
  142.7850  137.7560  151.4550 C   0  0  0  0  0  0  0  0  0  0  0  0
  143.8660  137.0400  152.0030 C   0  0  0  0  0  3  0  0  0  0  0  0
  141.3050  139.6620  151.6530 O   0  0  0  0  0  0  0  0  0  0  0  0
  141.3590  139.9980  150.7800 H   0  0  0  0  0  0  0  0  0  0  0  0
  142.3170  137.2410  150.2740 O   0  0  0  0  0  0  0  0  0  0  0  0
  142.8880  137.7390  149.0700 C   0  0  0  0  0  1  0  0  0  0  0  0
  1  5  1  0  0  0  0
  1  3  1  0  0  0  0
  2  1  2  0  0  0  0
  3  4  1  0  0  0  0
  6  5  1  0  0  0  0
  6  7  1  0  0  0  0
  7  8  2  0  0  0  0
  9  7  1  0  0  0  0
 10  9  1  0  0  0  0
 11 10  1  0  0  0  0
 12 13  1  0  0  0  0
 12 11  1  0  0  0  0
 14 15  1  0  0  0  0
 15 13  1  0  0  0  0
 16  3  1  0  0  0  0
 17 16  1  0  0  0  0
 17 18  1  0  0  0  0
 19 18  2  0  0  0  0
 20 19  1  0  0  0  0
 21 22  1  0  0  0  0
 21 20  2  0  0  0  0
 22 17  2  0  0  0  0
 23 20  1  0  0  0  0
 24 23  1  0  0  0  0
 25 21  1  0  0  0  0
 26 25  1  0  0  0  0
M  END
>  <MODEL>
3

>  <REMARK>
 VINA RESULT:    -5.668      7.945     10.974
 INTER + INTRA:         -11.402
 INTER:                  -9.033
 INTRA:                  -2.369
 UNBOUND:                -1.592
  Name = CHEMBL4226064
  15 active torsions:
  status: ('A' for Active; 'I' for Inactive)
    1  A    between atoms: C_1  and  C_2
    2  A    between atoms: C_2  and  C_3
    3  A    between atoms: C_3  and  C_4
    4  A    between atoms: C_4  and  C_5
    5  A    between atoms: C_5  and  C_6
    6  A    between atoms: C_6  and  C_7
    7  A    between atoms: C_7  and  C_8
    8  A    between atoms: C_8  and  O_10
    9  A    between atoms: O_10  and  C_11
   10  A    between atoms: C_11  and  C_12
   11  A    between atoms: N_14  and  C_15
   12  A    between atoms: C_15  and  C_16
   13  A    between atoms: C_19  and  O_20
   14  A    between atoms: C_21  and  O_22
   15  A    between atoms: O_22  and  C_23
                            x       y       z     vdW  Elec       q    Type
                         _______ _______ _______ _____ _____    ______ ____

>  <TORSDO>
F 13

>  <SCORE>
-5.668

>  <RMSD_LB>
7.945

>  <RMSD_UB>
10.974

$$$$
CHEMBL4226064
 OpenBabel10172500493D

 26 26  0  0  0  0  0  0  0  0999 V2000
  145.7560  136.7620  149.0620 C   0  0  0  0  0  0  0  0  0  0  0  0
  145.7180  135.5350  148.9750 O   0  0  0  0  0  0  0  0  0  0  0  0
  145.5850  137.4450  150.2460 N   0  0  0  0  0  0  0  0  0  0  0  0
  145.6890  138.4240  150.2480 H   0  0  0  0  0  0  0  0  0  0  0  0
  145.9850  137.6520  147.8390 C   0  0  0  0  0  2  0  0  0  0  0  0
  146.8660  138.7440  148.0960 O   0  0  0  0  0  0  0  0  0  0  0  0
  146.6840  139.8260  147.2950 C   0  0  0  0  0  0  0  0  0  0  0  0
  146.8150  139.8240  146.0780 O   0  0  0  0  0  0  0  0  0  0  0  0
  146.2610  141.0220  148.1140 C   0  0  0  0  0  2  0  0  0  0  0  0
  146.5660  140.8190  149.5950 C   0  0  0  0  0  2  0  0  0  0  0  0
  146.7070  142.1500  150.3400 C   0  0  0  0  0  2  0  0  0  0  0  0
  145.5550  142.3720  151.3200 C   0  0  0  0  0  2  0  0  0  0  0  0
  146.0340  142.2450  152.7680 C   0  0  0  0  0  2  0  0  0  0  0  0
  148.0730  141.8130  154.2050 C   0  0  0  0  0  1  0  0  0  0  0  0
  147.4280  141.6040  152.8430 C   0  0  0  0  0  2  0  0  0  0  0  0
  145.2570  136.7780  151.4860 C   0  0  0  0  0  2  0  0  0  0  0  0
  144.9750  137.7530  152.5970 C   0  0  0  0  0  0  0  0  0  0  0  0
  143.7970  138.4960  152.5720 C   0  0  0  0  0  3  0  0  0  0  0  0
  143.5260  139.4080  153.5880 C   0  0  0  0  0  3  0  0  0  0  0  0
  144.3820  139.5560  154.6750 C   0  0  0  0  0  0  0  0  0  0  0  0
  145.5840  138.8490  154.7120 C   0  0  0  0  0  0  0  0  0  0  0  0
  145.8680  137.9510  153.6670 C   0  0  0  0  0  3  0  0  0  0  0  0
  143.9940  140.3980  155.6800 O   0  0  0  0  0  0  0  0  0  0  0  0
  143.2540  140.9600  155.5610 H   0  0  0  0  0  0  0  0  0  0  0  0
  146.5660  138.9240  155.6650 O   0  0  0  0  0  0  0  0  0  0  0  0
  147.7100  138.0970  155.4940 C   0  0  0  0  0  1  0  0  0  0  0  0
  1  3  1  0  0  0  0
  2  1  2  0  0  0  0
  3  4  1  0  0  0  0
  3 16  1  0  0  0  0
  5  6  1  0  0  0  0
  5  1  1  0  0  0  0
  7  6  1  0  0  0  0
  7  9  1  0  0  0  0
  8  7  2  0  0  0  0
  9 10  1  0  0  0  0
 10 11  1  0  0  0  0
 11 12  1  0  0  0  0
 12 13  1  0  0  0  0
 13 15  1  0  0  0  0
 15 14  1  0  0  0  0
 16 17  1  0  0  0  0
 17 22  1  0  0  0  0
 18 17  2  0  0  0  0
 18 19  1  0  0  0  0
 19 20  2  0  0  0  0
 20 21  1  0  0  0  0
 20 23  1  0  0  0  0
 21 25  1  0  0  0  0
 22 21  2  0  0  0  0
 24 23  1  0  0  0  0
 26 25  1  0  0  0  0
M  END
>  <MODEL>
4

>  <REMARK>
 VINA RESULT:    -5.660      9.008     11.424
 INTER + INTRA:         -11.388
 INTER:                  -9.762
 INTRA:                  -1.625
 UNBOUND:                -1.592
  Name = CHEMBL4226064
  15 active torsions:
  status: ('A' for Active; 'I' for Inactive)
    1  A    between atoms: C_1  and  C_2
    2  A    between atoms: C_2  and  C_3
    3  A    between atoms: C_3  and  C_4
    4  A    between atoms: C_4  and  C_5
    5  A    between atoms: C_5  and  C_6
    6  A    between atoms: C_6  and  C_7
    7  A    between atoms: C_7  and  C_8
    8  A    between atoms: C_8  and  O_10
    9  A    between atoms: O_10  and  C_11
   10  A    between atoms: C_11  and  C_12
   11  A    between atoms: N_14  and  C_15
   12  A    between atoms: C_15  and  C_16
   13  A    between atoms: C_19  and  O_20
   14  A    between atoms: C_21  and  O_22
   15  A    between atoms: O_22  and  C_23
                            x       y       z     vdW  Elec       q    Type
                         _______ _______ _______ _____ _____    ______ ____

>  <TORSDO>
F 13

>  <SCORE>
-5.660

>  <RMSD_LB>
9.008

>  <RMSD_UB>
11.424

$$$$
CHEMBL4226064
 OpenBabel10172500493D

 26 26  0  0  0  0  0  0  0  0999 V2000
  141.6340  139.2750  151.2270 C   0  0  0  0  0  0  0  0  0  0  0  0
  140.8960  140.0640  150.6380 O   0  0  0  0  0  0  0  0  0  0  0  0
  141.1750  138.1630  151.8990 N   0  0  0  0  0  0  0  0  0  0  0  0
  141.8320  137.5450  152.2960 H   0  0  0  0  0  0  0  0  0  0  0  0
  143.1510  139.4730  151.2810 C   0  0  0  0  0  2  0  0  0  0  0  0
  143.8110  138.5240  152.1140 O   0  0  0  0  0  0  0  0  0  0  0  0
  145.1610  138.4730  151.9640 C   0  0  0  0  0  0  0  0  0  0  0  0
  145.7540  137.6880  151.2350 O   0  0  0  0  0  0  0  0  0  0  0  0
  145.8240  139.5460  152.7930 C   0  0  0  0  0  2  0  0  0  0  0  0
  147.3450  139.4450  152.7210 C   0  0  0  0  0  2  0  0  0  0  0  0
  148.0310  140.7120  153.2390 C   0  0  0  0  0  2  0  0  0  0  0  0
  147.4760  141.9690  152.5700 C   0  0  0  0  0  2  0  0  0  0  0  0
  148.0850  142.1640  151.1790 C   0  0  0  0  0  2  0  0  0  0  0  0
  145.6170  142.4580  150.6990 C   0  0  0  0  0  1  0  0  0  0  0  0
  147.0320  142.6380  150.1680 C   0  0  0  0  0  2  0  0  0  0  0  0
  139.7680  137.8700  152.0440 C   0  0  0  0  0  2  0  0  0  0  0  0
  139.3260  137.9050  153.4820 C   0  0  0  0  0  0  0  0  0  0  0  0
  140.2720  138.1190  154.4810 C   0  0  0  0  0  3  0  0  0  0  0  0
  139.8810  138.1450  155.8170 C   0  0  0  0  0  3  0  0  0  0  0  0
  138.5430  138.0230  156.1830 C   0  0  0  0  0  0  0  0  0  0  0  0
  137.5790  137.7760  155.2060 C   0  0  0  0  0  0  0  0  0  0  0  0
  137.9830  137.7200  153.8590 C   0  0  0  0  0  3  0  0  0  0  0  0
  138.2300  138.1610  157.5060 O   0  0  0  0  0  0  0  0  0  0  0  0
  137.6210  137.5730  157.9070 H   0  0  0  0  0  0  0  0  0  0  0  0
  136.2370  137.5650  155.3950 O   0  0  0  0  0  0  0  0  0  0  0  0
  135.8100  136.2290  155.6280 C   0  0  0  0  0  1  0  0  0  0  0  0
  1  5  1  0  0  0  0
  1  3  1  0  0  0  0
  2  1  2  0  0  0  0
  3 16  1  0  0  0  0
  3  4  1  0  0  0  0
  5  6  1  0  0  0  0
  7  6  1  0  0  0  0
  7  9  1  0  0  0  0
  8  7  2  0  0  0  0
 10  9  1  0  0  0  0
 10 11  1  0  0  0  0
 12 11  1  0  0  0  0
 13 12  1  0  0  0  0
 15 14  1  0  0  0  0
 15 13  1  0  0  0  0
 16 17  1  0  0  0  0
 17 22  2  0  0  0  0
 17 18  1  0  0  0  0
 18 19  2  0  0  0  0
 19 20  1  0  0  0  0
 20 23  1  0  0  0  0
 21 25  1  0  0  0  0
 21 20  2  0  0  0  0
 22 21  1  0  0  0  0
 23 24  1  0  0  0  0
 25 26  1  0  0  0  0
M  END
>  <MODEL>
5

>  <REMARK>
 VINA RESULT:    -5.452      5.387      8.738
 INTER + INTRA:         -11.029
 INTER:                 -10.060
 INTRA:                  -0.969
 UNBOUND:                -1.592
  Name = CHEMBL4226064
  15 active torsions:
  status: ('A' for Active; 'I' for Inactive)
    1  A    between atoms: C_1  and  C_2
    2  A    between atoms: C_2  and  C_3
    3  A    between atoms: C_3  and  C_4
    4  A    between atoms: C_4  and  C_5
    5  A    between atoms: C_5  and  C_6
    6  A    between atoms: C_6  and  C_7
    7  A    between atoms: C_7  and  C_8
    8  A    between atoms: C_8  and  O_10
    9  A    between atoms: O_10  and  C_11
   10  A    between atoms: C_11  and  C_12
   11  A    between atoms: N_14  and  C_15
   12  A    between atoms: C_15  and  C_16
   13  A    between atoms: C_19  and  O_20
   14  A    between atoms: C_21  and  O_22
   15  A    between atoms: O_22  and  C_23
                            x       y       z     vdW  Elec       q    Type
                         _______ _______ _______ _____ _____    ______ ____

>  <TORSDO>
F 13

>  <SCORE>
-5.452

>  <RMSD_LB>
5.387

>  <RMSD_UB>
8.738

$$$$
CHEMBL4226064
 OpenBabel10172500493D

 26 26  0  0  0  0  0  0  0  0999 V2000
  144.9790  138.4360  149.7140 C   0  0  0  0  0  0  0  0  0  0  0  0
  144.8480  137.5650  148.8530 O   0  0  0  0  0  0  0  0  0  0  0  0
  144.5390  138.2920  151.0120 N   0  0  0  0  0  0  0  0  0  0  0  0
  144.7340  139.0080  151.6600 H   0  0  0  0  0  0  0  0  0  0  0  0
  145.6380  139.7820  149.4080 C   0  0  0  0  0  2  0  0  0  0  0  0
  146.6150  140.1610  150.3750 O   0  0  0  0  0  0  0  0  0  0  0  0
  146.3120  141.2800  151.0840 C   0  0  0  0  0  0  0  0  0  0  0  0
  145.2430  141.4830  151.6460 O   0  0  0  0  0  0  0  0  0  0  0  0
  147.4920  142.2210  151.1130 C   0  0  0  0  0  2  0  0  0  0  0  0
  148.5910  141.7080  152.0380 C   0  0  0  0  0  2  0  0  0  0  0  0
  148.2360  141.8990  153.5150 C   0  0  0  0  0  2  0  0  0  0  0  0
  148.4330  140.6110  154.3140 C   0  0  0  0  0  2  0  0  0  0  0  0
  148.4810  139.3930  153.3890 C   0  0  0  0  0  2  0  0  0  0  0  0
  146.6190  138.6150  154.9170 C   0  0  0  0  0  1  0  0  0  0  0  0
  147.2090  138.5430  153.5160 C   0  0  0  0  0  2  0  0  0  0  0  0
  143.8030  137.1320  151.4580 C   0  0  0  0  0  2  0  0  0  0  0  0
  142.3570  137.4480  151.7310 C   0  0  0  0  0  0  0  0  0  0  0  0
  141.3990  137.1490  150.7660 C   0  0  0  0  0  3  0  0  0  0  0  0
  140.0580  137.4440  151.0000 C   0  0  0  0  0  3  0  0  0  0  0  0
  139.6350  137.9790  152.2130 C   0  0  0  0  0  0  0  0  0  0  0  0
  140.5750  138.3170  153.1860 C   0  0  0  0  0  0  0  0  0  0  0  0
  141.9330  138.0460  152.9320 C   0  0  0  0  0  3  0  0  0  0  0  0
  138.2920  138.1440  152.4010 O   0  0  0  0  0  0  0  0  0  0  0  0
  137.8550  137.6840  153.0900 H   0  0  0  0  0  0  0  0  0  0  0  0
  140.3420  138.9090  154.4000 O   0  0  0  0  0  0  0  0  0  0  0  0
  140.8870  138.2780  155.5530 C   0  0  0  0  0  1  0  0  0  0  0  0
  1  3  1  0  0  0  0
  2  1  2  0  0  0  0
  3 16  1  0  0  0  0
  3  4  1  0  0  0  0
  5  1  1  0  0  0  0
  5  6  1  0  0  0  0
  6  7  1  0  0  0  0
  7  9  1  0  0  0  0
  7  8  2  0  0  0  0
  9 10  1  0  0  0  0
 10 11  1  0  0  0  0
 11 12  1  0  0  0  0
 13 15  1  0  0  0  0
 13 12  1  0  0  0  0
 15 14  1  0  0  0  0
 16 17  1  0  0  0  0
 17 22  1  0  0  0  0
 18 19  1  0  0  0  0
 18 17  2  0  0  0  0
 19 20  2  0  0  0  0
 20 23  1  0  0  0  0
 20 21  1  0  0  0  0
 21 25  1  0  0  0  0
 22 21  2  0  0  0  0
 23 24  1  0  0  0  0
 25 26  1  0  0  0  0
M  END
>  <MODEL>
6

>  <REMARK>
 VINA RESULT:    -5.449      6.419     10.148
 INTER + INTRA:         -11.023
 INTER:                  -9.595
 INTRA:                  -1.428
 UNBOUND:                -1.592
  Name = CHEMBL4226064
  15 active torsions:
  status: ('A' for Active; 'I' for Inactive)
    1  A    between atoms: C_1  and  C_2
    2  A    between atoms: C_2  and  C_3
    3  A    between atoms: C_3  and  C_4
    4  A    between atoms: C_4  and  C_5
    5  A    between atoms: C_5  and  C_6
    6  A    between atoms: C_6  and  C_7
    7  A    between atoms: C_7  and  C_8
    8  A    between atoms: C_8  and  O_10
    9  A    between atoms: O_10  and  C_11
   10  A    between atoms: C_11  and  C_12
   11  A    between atoms: N_14  and  C_15
   12  A    between atoms: C_15  and  C_16
   13  A    between atoms: C_19  and  O_20
   14  A    between atoms: C_21  and  O_22
   15  A    between atoms: O_22  and  C_23
                            x       y       z     vdW  Elec       q    Type
                         _______ _______ _______ _____ _____    ______ ____

>  <TORSDO>
F 13

>  <SCORE>
-5.449

>  <RMSD_LB>
6.419

>  <RMSD_UB>
10.148

$$$$
CHEMBL4226064
 OpenBabel10172500493D

 26 26  0  0  0  0  0  0  0  0999 V2000
  134.3460  134.9850  154.7100 C   0  0  0  0  0  0  0  0  0  0  0  0
  133.6410  134.7720  155.6960 O   0  0  0  0  0  0  0  0  0  0  0  0
  135.6330  135.4720  154.7880 N   0  0  0  0  0  0  0  0  0  0  0  0
  136.1570  135.5600  153.9580 H   0  0  0  0  0  0  0  0  0  0  0  0
  133.8410  134.7390  153.2870 C   0  0  0  0  0  2  0  0  0  0  0  0
  133.7080  135.9370  152.5240 O   0  0  0  0  0  0  0  0  0  0  0  0
  134.5730  136.0500  151.4830 C   0  0  0  0  0  0  0  0  0  0  0  0
  135.7880  136.1540  151.5920 O   0  0  0  0  0  0  0  0  0  0  0  0
  133.8290  135.9930  150.1710 C   0  0  0  0  0  2  0  0  0  0  0  0
  134.0520  134.6600  149.4610 C   0  0  0  0  0  2  0  0  0  0  0  0
  133.1280  134.4900  148.2520 C   0  0  0  0  0  2  0  0  0  0  0  0
  133.3590  133.1520  147.5500 C   0  0  0  0  0  2  0  0  0  0  0  0
  134.8160  132.7050  147.6870 C   0  0  0  0  0  2  0  0  0  0  0  0
  137.0530  132.5500  146.5110 C   0  0  0  0  0  1  0  0  0  0  0  0
  135.6540  133.1470  146.4780 C   0  0  0  0  0  2  0  0  0  0  0  0
  136.2420  135.8590  156.0400 C   0  0  0  0  0  2  0  0  0  0  0  0
  137.4720  136.7010  155.8360 C   0  0  0  0  0  0  0  0  0  0  0  0
  138.4100  136.7990  156.8610 C   0  0  0  0  0  3  0  0  0  0  0  0
  139.5490  137.5800  156.6910 C   0  0  0  0  0  3  0  0  0  0  0  0
  139.8120  138.2250  155.4860 C   0  0  0  0  0  0  0  0  0  0  0  0
  138.8770  138.1700  154.4530 C   0  0  0  0  0  0  0  0  0  0  0  0
  137.7110  137.4040  154.6410 C   0  0  0  0  0  3  0  0  0  0  0  0
  141.0010  138.8890  155.3660 O   0  0  0  0  0  0  0  0  0  0  0  0
  141.2430  139.5360  155.9990 H   0  0  0  0  0  0  0  0  0  0  0  0
  138.9430  138.7950  153.2350 O   0  0  0  0  0  0  0  0  0  0  0  0
  138.8210  137.9830  152.0730 C   0  0  0  0  0  1  0  0  0  0  0  0
  1  3  1  0  0  0  0
  1  2  2  0  0  0  0
  3 16  1  0  0  0  0
  4  3  1  0  0  0  0
  5  1  1  0  0  0  0
  6  5  1  0  0  0  0
  7  8  2  0  0  0  0
  7  6  1  0  0  0  0
  9  7  1  0  0  0  0
 10  9  1  0  0  0  0
 11 10  1  0  0  0  0
 12 13  1  0  0  0  0
 12 11  1  0  0  0  0
 15 14  1  0  0  0  0
 15 13  1  0  0  0  0
 17 16  1  0  0  0  0
 17 18  1  0  0  0  0
 19 18  2  0  0  0  0
 20 19  1  0  0  0  0
 21 22  1  0  0  0  0
 21 20  2  0  0  0  0
 22 17  2  0  0  0  0
 23 20  1  0  0  0  0
 23 24  1  0  0  0  0
 25 21  1  0  0  0  0
 26 25  1  0  0  0  0
M  END
>  <MODEL>
7

>  <REMARK>
 VINA RESULT:    -5.388      2.552      5.455
 INTER + INTRA:         -10.918
 INTER:                  -9.919
 INTRA:                  -0.999
 UNBOUND:                -1.592
  Name = CHEMBL4226064
  15 active torsions:
  status: ('A' for Active; 'I' for Inactive)
    1  A    between atoms: C_1  and  C_2
    2  A    between atoms: C_2  and  C_3
    3  A    between atoms: C_3  and  C_4
    4  A    between atoms: C_4  and  C_5
    5  A    between atoms: C_5  and  C_6
    6  A    between atoms: C_6  and  C_7
    7  A    between atoms: C_7  and  C_8
    8  A    between atoms: C_8  and  O_10
    9  A    between atoms: O_10  and  C_11
   10  A    between atoms: C_11  and  C_12
   11  A    between atoms: N_14  and  C_15
   12  A    between atoms: C_15  and  C_16
   13  A    between atoms: C_19  and  O_20
   14  A    between atoms: C_21  and  O_22
   15  A    between atoms: O_22  and  C_23
                            x       y       z     vdW  Elec       q    Type
                         _______ _______ _______ _____ _____    ______ ____

>  <TORSDO>
F 13

>  <SCORE>
-5.388

>  <RMSD_LB>
2.552

>  <RMSD_UB>
5.455

$$$$
CHEMBL4226064
 OpenBabel10172500493D

 26 26  0  0  0  0  0  0  0  0999 V2000
  143.6070  140.0030  149.7670 C   0  0  0  0  0  0  0  0  0  0  0  0
  144.0880  140.0450  148.6350 O   0  0  0  0  0  0  0  0  0  0  0  0
  144.0790  140.7560  150.8200 N   0  0  0  0  0  0  0  0  0  0  0  0
  143.6040  140.7150  151.6820 H   0  0  0  0  0  0  0  0  0  0  0  0
  142.4340  139.0840  150.1130 C   0  0  0  0  0  2  0  0  0  0  0  0
  142.8400  137.8660  150.7330 O   0  0  0  0  0  0  0  0  0  0  0  0
  142.5390  136.7410  150.0340 C   0  0  0  0  0  0  0  0  0  0  0  0
  141.4400  136.4870  149.5570 O   0  0  0  0  0  0  0  0  0  0  0  0
  143.7610  135.8650  149.8940 C   0  0  0  0  0  2  0  0  0  0  0  0
  144.8090  136.5090  148.9910 C   0  0  0  0  0  2  0  0  0  0  0  0
  146.2200  135.9950  149.2890 C   0  0  0  0  0  2  0  0  0  0  0  0
  146.4460  135.8030  150.7890 C   0  0  0  0  0  2  0  0  0  0  0  0
  147.2920  136.9400  151.3660 C   0  0  0  0  0  2  0  0  0  0  0  0
  145.8500  136.4390  153.3860 C   0  0  0  0  0  1  0  0  0  0  0  0
  147.1760  137.0040  152.8960 C   0  0  0  0  0  2  0  0  0  0  0  0
  145.2440  141.6040  150.7080 C   0  0  0  0  0  2  0  0  0  0  0  0
  146.1910  141.4210  151.8620 C   0  0  0  0  0  0  0  0  0  0  0  0
  147.4230  142.0710  151.8440 C   0  0  0  0  0  3  0  0  0  0  0  0
  148.3140  141.9050  152.9000 C   0  0  0  0  0  3  0  0  0  0  0  0
  147.9790  141.1470  154.0190 C   0  0  0  0  0  0  0  0  0  0  0  0
  146.7660  140.4610  154.0510 C   0  0  0  0  0  0  0  0  0  0  0  0
  145.8810  140.6070  152.9670 C   0  0  0  0  0  3  0  0  0  0  0  0
  148.8680  141.1170  155.0570 O   0  0  0  0  0  0  0  0  0  0  0  0
  149.0570  140.3080  155.4890 H   0  0  0  0  0  0  0  0  0  0  0  0
  146.3090  139.6230  155.0350 O   0  0  0  0  0  0  0  0  0  0  0  0
  144.9010  139.4530  155.1510 C   0  0  0  0  0  1  0  0  0  0  0  0
  1  5  1  0  0  0  0
  1  3  1  0  0  0  0
  2  1  2  0  0  0  0
  3  4  1  0  0  0  0
  5  6  1  0  0  0  0
  7  6  1  0  0  0  0
  8  7  2  0  0  0  0
  9  7  1  0  0  0  0
 10 11  1  0  0  0  0
 10  9  1  0  0  0  0
 11 12  1  0  0  0  0
 12 13  1  0  0  0  0
 13 15  1  0  0  0  0
 15 14  1  0  0  0  0
 16  3  1  0  0  0  0
 16 17  1  0  0  0  0
 17 22  1  0  0  0  0
 18 17  2  0  0  0  0
 18 19  1  0  0  0  0
 19 20  2  0  0  0  0
 20 21  1  0  0  0  0
 20 23  1  0  0  0  0
 21 25  1  0  0  0  0
 22 21  2  0  0  0  0
 23 24  1  0  0  0  0
 25 26  1  0  0  0  0
M  END
>  <MODEL>
8

>  <REMARK>
 VINA RESULT:    -5.243      8.307     11.089
 INTER + INTRA:         -10.667
 INTER:                  -9.134
 INTRA:                  -1.533
 UNBOUND:                -1.592
  Name = CHEMBL4226064
  15 active torsions:
  status: ('A' for Active; 'I' for Inactive)
    1  A    between atoms: C_1  and  C_2
    2  A    between atoms: C_2  and  C_3
    3  A    between atoms: C_3  and  C_4
    4  A    between atoms: C_4  and  C_5
    5  A    between atoms: C_5  and  C_6
    6  A    between atoms: C_6  and  C_7
    7  A    between atoms: C_7  and  C_8
    8  A    between atoms: C_8  and  O_10
    9  A    between atoms: O_10  and  C_11
   10  A    between atoms: C_11  and  C_12
   11  A    between atoms: N_14  and  C_15
   12  A    between atoms: C_15  and  C_16
   13  A    between atoms: C_19  and  O_20
   14  A    between atoms: C_21  and  O_22
   15  A    between atoms: O_22  and  C_23
                            x       y       z     vdW  Elec       q    Type
                         _______ _______ _______ _____ _____    ______ ____

>  <TORSDO>
F 13

>  <SCORE>
-5.243

>  <RMSD_LB>
8.307

>  <RMSD_UB>
11.089

$$$$
CHEMBL4226064
 OpenBabel10172500493D

 26 26  0  0  0  0  0  0  0  0999 V2000
  136.7870  138.9760  146.9740 C   0  0  0  0  0  0  0  0  0  0  0  0
  137.7480  139.2700  146.2630 O   0  0  0  0  0  0  0  0  0  0  0  0
  136.5890  139.4950  148.2350 N   0  0  0  0  0  0  0  0  0  0  0  0
  135.7650  139.2600  148.7200 H   0  0  0  0  0  0  0  0  0  0  0  0
  135.7210  137.9780  146.5190 C   0  0  0  0  0  2  0  0  0  0  0  0
  136.0310  136.6290  146.8620 O   0  0  0  0  0  0  0  0  0  0  0  0
  135.3250  136.1290  147.9090 C   0  0  0  0  0  0  0  0  0  0  0  0
  134.3470  136.6660  148.4130 O   0  0  0  0  0  0  0  0  0  0  0  0
  135.8940  134.7980  148.3410 C   0  0  0  0  0  2  0  0  0  0  0  0
  137.0290  134.9770  149.3440 C   0  0  0  0  0  2  0  0  0  0  0  0
  136.5290  134.9500  150.7910 C   0  0  0  0  0  2  0  0  0  0  0  0
  135.3670  133.9730  150.9680 C   0  0  0  0  0  2  0  0  0  0  0  0
  134.5090  134.3530  152.1770 C   0  0  0  0  0  2  0  0  0  0  0  0
  132.6370  134.2480  150.4760 C   0  0  0  0  0  1  0  0  0  0  0  0
  133.1480  134.9180  151.7430 C   0  0  0  0  0  2  0  0  0  0  0  0
  137.5450  140.3730  148.8710 C   0  0  0  0  0  2  0  0  0  0  0  0
  138.5490  139.6150  149.6960 C   0  0  0  0  0  0  0  0  0  0  0  0
  138.1790  138.4080  150.2830 C   0  0  0  0  0  3  0  0  0  0  0  0
  139.0940  137.6980  151.0560 C   0  0  0  0  0  3  0  0  0  0  0  0
  140.4060  138.1370  151.2090 C   0  0  0  0  0  0  0  0  0  0  0  0
  140.7970  139.3570  150.6580 C   0  0  0  0  0  0  0  0  0  0  0  0
  139.8590  140.0860  149.9030 C   0  0  0  0  0  3  0  0  0  0  0  0
  141.2700  137.3320  151.8980 O   0  0  0  0  0  0  0  0  0  0  0  0
  141.9290  136.8490  151.4390 H   0  0  0  0  0  0  0  0  0  0  0  0
  142.0200  139.9670  150.7670 O   0  0  0  0  0  0  0  0  0  0  0  0
  142.8520  139.9780  149.6130 C   0  0  0  0  0  1  0  0  0  0  0  0
  1  3  1  0  0  0  0
  2  1  2  0  0  0  0
  3  4  1  0  0  0  0
  3 16  1  0  0  0  0
  5  6  1  0  0  0  0
  5  1  1  0  0  0  0
  6  7  1  0  0  0  0
  7  9  1  0  0  0  0
  7  8  2  0  0  0  0
  9 10  1  0  0  0  0
 10 11  1  0  0  0  0
 11 12  1  0  0  0  0
 12 13  1  0  0  0  0
 14 15  1  0  0  0  0
 15 13  1  0  0  0  0
 16 17  1  0  0  0  0
 17 22  2  0  0  0  0
 17 18  1  0  0  0  0
 18 19  2  0  0  0  0
 19 20  1  0  0  0  0
 20 23  1  0  0  0  0
 21 25  1  0  0  0  0
 21 20  2  0  0  0  0
 22 21  1  0  0  0  0
 24 23  1  0  0  0  0
 26 25  1  0  0  0  0
M  END
>  <MODEL>
9

>  <REMARK>
 VINA RESULT:    -5.143      4.560      7.006
 INTER + INTRA:         -10.494
 INTER:                  -8.901
 INTRA:                  -1.592
 UNBOUND:                -1.592
  Name = CHEMBL4226064
  15 active torsions:
  status: ('A' for Active; 'I' for Inactive)
    1  A    between atoms: C_1  and  C_2
    2  A    between atoms: C_2  and  C_3
    3  A    between atoms: C_3  and  C_4
    4  A    between atoms: C_4  and  C_5
    5  A    between atoms: C_5  and  C_6
    6  A    between atoms: C_6  and  C_7
    7  A    between atoms: C_7  and  C_8
    8  A    between atoms: C_8  and  O_10
    9  A    between atoms: O_10  and  C_11
   10  A    between atoms: C_11  and  C_12
   11  A    between atoms: N_14  and  C_15
   12  A    between atoms: C_15  and  C_16
   13  A    between atoms: C_19  and  O_20
   14  A    between atoms: C_21  and  O_22
   15  A    between atoms: O_22  and  C_23
                            x       y       z     vdW  Elec       q    Type
                         _______ _______ _______ _____ _____    ______ ____

>  <TORSDO>
F 13

>  <SCORE>
-5.143

>  <RMSD_LB>
4.560

>  <RMSD_UB>
7.006

$$$$
