CHEMBL76731
 OpenBabel10162523323D

 17 17  0  0  0  0  0  0  0  0999 V2000
  146.8790  141.4610  153.2420 C   0  0  0  0  0  0  0  0  0  0  0  0
  146.3800  141.7830  151.9760 C   0  0  0  0  0  3  0  0  0  0  0  0
  147.2420  142.2050  150.9470 C   0  0  0  0  0  0  0  0  0  0  0  0
  148.6120  142.3320  151.2120 C   0  0  0  0  0  3  0  0  0  0  0  0
  149.1200  142.0140  152.4710 C   0  0  0  0  0  3  0  0  0  0  0  0
  148.2560  141.5790  153.4740 C   0  0  0  0  0  0  0  0  0  0  0  0
  145.6800  139.6750  154.2750 C   0  0  0  0  0  1  0  0  0  0  0  0
  146.1230  141.0240  154.2980 O   0  0  0  0  0  0  0  0  0  0  0  0
  148.7560  141.2590  154.7100 O   0  0  0  0  0  0  0  0  0  0  0  0
  149.0380  141.9380  155.2910 H   0  0  0  0  0  0  0  0  0  0  0  0
  146.7000  142.5280  149.5810 C   0  0  0  0  0  2  0  0  0  0  0  0
  146.1570  141.3600  148.9310 N   0  0  0  0  0  0  0  0  0  0  0  0
  146.1690  141.2710  147.5540 C   0  0  0  0  0  0  0  0  0  0  0  0
  146.7240  142.1010  146.8390 O   0  0  0  0  0  0  0  0  0  0  0  0
  145.7780  140.6280  149.4690 H   0  0  0  0  0  0  0  0  0  0  0  0
  145.5170  140.0320  146.9850 C   0  0  0  0  0  2  0  0  0  0  0  0
  143.9100  139.6540  148.0080 Br  0  0  0  0  0  0  0  0  0  0  0  0
  1  6  1  0  0  0  0
  1  8  1  0  0  0  0
  2  1  2  0  0  0  0
  3  4  2  0  0  0  0
  3  2  1  0  0  0  0
  4  5  1  0  0  0  0
  5  6  2  0  0  0  0
  6  9  1  0  0  0  0
  7  8  1  0  0  0  0
  9 10  1  0  0  0  0
 11  3  1  0  0  0  0
 12 15  1  0  0  0  0
 12 11  1  0  0  0  0
 13 12  1  0  0  0  0
 14 13  2  0  0  0  0
 16 13  1  0  0  0  0
 16 17  1  0  0  0  0
M  END
>  <MODEL>
1

>  <REMARK>
 VINA RESULT:    -5.466      0.000      0.000
 INTER + INTRA:          -7.226
 INTER:                  -6.971
 INTRA:                  -0.255
 UNBOUND:                -0.322
  Name = CHEMBL76731
  6 active torsions:
  status: ('A' for Active; 'I' for Inactive)
    1  A    between atoms: C_1  and  O_2
    2  A    between atoms: O_2  and  C_3
    3  A    between atoms: C_5  and  C_6
    4  A    between atoms: C_6  and  N_7
    5  A    between atoms: C_8  and  C_10
    6  A    between atoms: C_14  and  O_15
                            x       y       z     vdW  Elec       q    Type
                         _______ _______ _______ _____ _____    ______ ____

>  <TORSDO>
F 5

>  <SCORE>
-5.466

>  <RMSD_LB>
0.000

>  <RMSD_UB>
0.000

$$$$
CHEMBL76731
 OpenBabel10162523323D

 17 17  0  0  0  0  0  0  0  0999 V2000
  134.8250  134.3550  147.6510 C   0  0  0  0  0  0  0  0  0  0  0  0
  134.1320  135.0130  148.6720 C   0  0  0  0  0  3  0  0  0  0  0  0
  133.4790  134.2860  149.6850 C   0  0  0  0  0  0  0  0  0  0  0  0
  133.5020  132.8850  149.6440 C   0  0  0  0  0  3  0  0  0  0  0  0
  134.1890  132.2190  148.6300 C   0  0  0  0  0  3  0  0  0  0  0  0
  134.8470  132.9530  147.6440 C   0  0  0  0  0  0  0  0  0  0  0  0
  136.3850  136.0330  146.9840 C   0  0  0  0  0  1  0  0  0  0  0  0
  135.5050  134.9750  146.6350 O   0  0  0  0  0  0  0  0  0  0  0  0
  135.5300  132.2990  146.6510 O   0  0  0  0  0  0  0  0  0  0  0  0
  135.9140  131.4620  146.8210 H   0  0  0  0  0  0  0  0  0  0  0  0
  132.7550  135.0010  150.7930 C   0  0  0  0  0  2  0  0  0  0  0  0
  133.1370  134.5020  152.0920 N   0  0  0  0  0  0  0  0  0  0  0  0
  133.9230  135.2750  152.9220 C   0  0  0  0  0  0  0  0  0  0  0  0
  134.2350  136.4330  152.6540 O   0  0  0  0  0  0  0  0  0  0  0  0
  132.8380  133.6120  152.3850 H   0  0  0  0  0  0  0  0  0  0  0  0
  134.3100  134.6230  154.2280 C   0  0  0  0  0  2  0  0  0  0  0  0
  135.8120  135.5940  154.9830 Br  0  0  0  0  0  0  0  0  0  0  0  0
  1  2  1  0  0  0  0
  2  3  2  0  0  0  0
  3 11  1  0  0  0  0
  4  3  1  0  0  0  0
  5  4  2  0  0  0  0
  6  1  2  0  0  0  0
  6  5  1  0  0  0  0
  8  7  1  0  0  0  0
  8  1  1  0  0  0  0
  9 10  1  0  0  0  0
  9  6  1  0  0  0  0
 11 12  1  0  0  0  0
 12 15  1  0  0  0  0
 12 13  1  0  0  0  0
 13 16  1  0  0  0  0
 14 13  2  0  0  0  0
 16 17  1  0  0  0  0
M  END
>  <MODEL>
2

>  <REMARK>
 VINA RESULT:    -5.258     13.230     15.415
 INTER + INTRA:          -6.964
 INTER:                  -6.681
 INTRA:                  -0.283
 UNBOUND:                -0.322
  Name = CHEMBL76731
  6 active torsions:
  status: ('A' for Active; 'I' for Inactive)
    1  A    between atoms: C_1  and  O_2
    2  A    between atoms: O_2  and  C_3
    3  A    between atoms: C_5  and  C_6
    4  A    between atoms: C_6  and  N_7
    5  A    between atoms: C_8  and  C_10
    6  A    between atoms: C_14  and  O_15
                            x       y       z     vdW  Elec       q    Type
                         _______ _______ _______ _____ _____    ______ ____

>  <TORSDO>
F 5

>  <SCORE>
-5.258

>  <RMSD_LB>
13.230

>  <RMSD_UB>
15.415

$$$$
CHEMBL76731
 OpenBabel10162523323D

 17 17  0  0  0  0  0  0  0  0999 V2000
  146.9920  139.8330  153.5630 C   0  0  0  0  0  0  0  0  0  0  0  0
  145.9930  139.7140  152.5920 C   0  0  0  0  0  3  0  0  0  0  0  0
  145.4590  140.8550  151.9650 C   0  0  0  0  0  0  0  0  0  0  0  0
  145.9180  142.1230  152.3460 C   0  0  0  0  0  3  0  0  0  0  0  0
  146.9120  142.2530  153.3140 C   0  0  0  0  0  3  0  0  0  0  0  0
  147.4450  141.1120  153.9130 C   0  0  0  0  0  0  0  0  0  0  0  0
  146.9450  138.2870  155.3810 C   0  0  0  0  0  1  0  0  0  0  0  0
  147.5860  138.7830  154.2140 O   0  0  0  0  0  0  0  0  0  0  0  0
  148.4300  141.2380  154.8590 O   0  0  0  0  0  0  0  0  0  0  0  0
  148.2190  141.5600  155.7130 H   0  0  0  0  0  0  0  0  0  0  0  0
  144.4010  140.7180  150.9040 C   0  0  0  0  0  2  0  0  0  0  0  0
  143.2710  139.9520  151.3710 N   0  0  0  0  0  0  0  0  0  0  0  0
  142.1560  139.8110  150.5690 C   0  0  0  0  0  0  0  0  0  0  0  0
  142.1140  140.2220  149.4120 O   0  0  0  0  0  0  0  0  0  0  0  0
  143.2940  139.5310  152.2600 H   0  0  0  0  0  0  0  0  0  0  0  0
  141.0140  139.0410  151.1890 C   0  0  0  0  0  2  0  0  0  0  0  0
  141.7490  137.6550  152.3310 Br  0  0  0  0  0  0  0  0  0  0  0  0
  1  6  1  0  0  0  0
  1  8  1  0  0  0  0
  2  1  2  0  0  0  0
  3  4  2  0  0  0  0
  3  2  1  0  0  0  0
  4  5  1  0  0  0  0
  5  6  2  0  0  0  0
  6  9  1  0  0  0  0
  8  7  1  0  0  0  0
  9 10  1  0  0  0  0
 11 12  1  0  0  0  0
 11  3  1  0  0  0  0
 12 15  1  0  0  0  0
 13 16  1  0  0  0  0
 13 12  1  0  0  0  0
 14 13  2  0  0  0  0
 16 17  1  0  0  0  0
M  END
>  <MODEL>
3

>  <REMARK>
 VINA RESULT:    -5.177      3.241      3.583
 INTER + INTRA:          -6.861
 INTER:                  -6.633
 INTRA:                  -0.228
 UNBOUND:                -0.322
  Name = CHEMBL76731
  6 active torsions:
  status: ('A' for Active; 'I' for Inactive)
    1  A    between atoms: C_1  and  O_2
    2  A    between atoms: O_2  and  C_3
    3  A    between atoms: C_5  and  C_6
    4  A    between atoms: C_6  and  N_7
    5  A    between atoms: C_8  and  C_10
    6  A    between atoms: C_14  and  O_15
                            x       y       z     vdW  Elec       q    Type
                         _______ _______ _______ _____ _____    ______ ____

>  <TORSDO>
F 5

>  <SCORE>
-5.177

>  <RMSD_LB>
3.241

>  <RMSD_UB>
3.583

$$$$
CHEMBL76731
 OpenBabel10162523323D

 17 17  0  0  0  0  0  0  0  0999 V2000
  146.2890  140.2000  154.0240 C   0  0  0  0  0  0  0  0  0  0  0  0
  145.3430  139.9330  153.0300 C   0  0  0  0  0  3  0  0  0  0  0  0
  145.1260  140.8440  151.9800 C   0  0  0  0  0  0  0  0  0  0  0  0
  145.8470  142.0450  151.9550 C   0  0  0  0  0  3  0  0  0  0  0  0
  146.7920  142.3210  152.9430 C   0  0  0  0  0  3  0  0  0  0  0  0
  147.0100  141.4000  153.9670 C   0  0  0  0  0  0  0  0  0  0  0  0
  146.7780  137.9910  154.7850 C   0  0  0  0  0  1  0  0  0  0  0  0
  146.5840  139.3680  155.0740 O   0  0  0  0  0  0  0  0  0  0  0  0
  147.9440  141.6670  154.9340 O   0  0  0  0  0  0  0  0  0  0  0  0
  148.2920  140.9690  155.4530 H   0  0  0  0  0  0  0  0  0  0  0  0
  144.1230  140.5400  150.9000 C   0  0  0  0  0  2  0  0  0  0  0  0
  144.6480  140.8230  149.5860 N   0  0  0  0  0  0  0  0  0  0  0  0
  145.2660  139.8240  148.8610 C   0  0  0  0  0  0  0  0  0  0  0  0
  145.3010  138.6550  149.2380 O   0  0  0  0  0  0  0  0  0  0  0  0
  144.5650  141.7270  149.2070 H   0  0  0  0  0  0  0  0  0  0  0  0
  145.8300  140.2540  147.5280 C   0  0  0  0  0  2  0  0  0  0  0  0
  147.1340  138.9350  146.9540 Br  0  0  0  0  0  0  0  0  0  0  0  0
  1  8  1  0  0  0  0
  2  1  2  0  0  0  0
  3  2  1  0  0  0  0
  4  3  2  0  0  0  0
  4  5  1  0  0  0  0
  5  6  2  0  0  0  0
  6  1  1  0  0  0  0
  6  9  1  0  0  0  0
  7  8  1  0  0  0  0
  9 10  1  0  0  0  0
 11  3  1  0  0  0  0
 12 11  1  0  0  0  0
 13 14  2  0  0  0  0
 13 12  1  0  0  0  0
 15 12  1  0  0  0  0
 16 13  1  0  0  0  0
 17 16  1  0  0  0  0
M  END
>  <MODEL>
4

>  <REMARK>
 VINA RESULT:    -5.079      2.094      2.479
 INTER + INTRA:          -6.737
 INTER:                  -6.426
 INTRA:                  -0.311
 UNBOUND:                -0.322
  Name = CHEMBL76731
  6 active torsions:
  status: ('A' for Active; 'I' for Inactive)
    1  A    between atoms: C_1  and  O_2
    2  A    between atoms: O_2  and  C_3
    3  A    between atoms: C_5  and  C_6
    4  A    between atoms: C_6  and  N_7
    5  A    between atoms: C_8  and  C_10
    6  A    between atoms: C_14  and  O_15
                            x       y       z     vdW  Elec       q    Type
                         _______ _______ _______ _____ _____    ______ ____

>  <TORSDO>
F 5

>  <SCORE>
-5.079

>  <RMSD_LB>
2.094

>  <RMSD_UB>
2.479

$$$$
CHEMBL76731
 OpenBabel10162523323D

 17 17  0  0  0  0  0  0  0  0999 V2000
  134.1380  135.5840  150.8310 C   0  0  0  0  0  0  0  0  0  0  0  0
  134.1930  135.8190  149.4530 C   0  0  0  0  0  3  0  0  0  0  0  0
  133.4910  134.9970  148.5530 C   0  0  0  0  0  0  0  0  0  0  0  0
  132.7560  133.9120  149.0480 C   0  0  0  0  0  3  0  0  0  0  0  0
  132.6960  133.6670  150.4200 C   0  0  0  0  0  3  0  0  0  0  0  0
  133.3810  134.5020  151.3010 C   0  0  0  0  0  0  0  0  0  0  0  0
  136.1860  136.2560  151.8550 C   0  0  0  0  0  1  0  0  0  0  0  0
  134.7700  136.3390  151.7850 O   0  0  0  0  0  0  0  0  0  0  0  0
  133.3150  134.2670  152.6500 O   0  0  0  0  0  0  0  0  0  0  0  0
  132.6060  134.6180  153.1520 H   0  0  0  0  0  0  0  0  0  0  0  0
  133.5360  135.2710  147.0740 C   0  0  0  0  0  2  0  0  0  0  0  0
  134.7570  134.7870  146.4770 N   0  0  0  0  0  0  0  0  0  0  0  0
  134.7760  133.5580  145.8490 C   0  0  0  0  0  0  0  0  0  0  0  0
  133.7620  132.8850  145.6750 O   0  0  0  0  0  0  0  0  0  0  0  0
  135.5750  135.3320  146.5170 H   0  0  0  0  0  0  0  0  0  0  0  0
  136.1230  133.1300  145.3180 C   0  0  0  0  0  2  0  0  0  0  0  0
  137.4090  133.1910  146.7700 Br  0  0  0  0  0  0  0  0  0  0  0  0
  1  6  1  0  0  0  0
  1  8  1  0  0  0  0
  2  1  2  0  0  0  0
  3  4  2  0  0  0  0
  3  2  1  0  0  0  0
  4  5  1  0  0  0  0
  5  6  2  0  0  0  0
  6  9  1  0  0  0  0
  8  7  1  0  0  0  0
  9 10  1  0  0  0  0
 11  3  1  0  0  0  0
 12 15  1  0  0  0  0
 12 11  1  0  0  0  0
 13 12  1  0  0  0  0
 14 13  2  0  0  0  0
 16 13  1  0  0  0  0
 16 17  1  0  0  0  0
M  END
>  <MODEL>
5

>  <REMARK>
 VINA RESULT:    -5.054     13.049     14.663
 INTER + INTRA:          -6.706
 INTER:                  -6.318
 INTRA:                  -0.388
 UNBOUND:                -0.322
  Name = CHEMBL76731
  6 active torsions:
  status: ('A' for Active; 'I' for Inactive)
    1  A    between atoms: C_1  and  O_2
    2  A    between atoms: O_2  and  C_3
    3  A    between atoms: C_5  and  C_6
    4  A    between atoms: C_6  and  N_7
    5  A    between atoms: C_8  and  C_10
    6  A    between atoms: C_14  and  O_15
                            x       y       z     vdW  Elec       q    Type
                         _______ _______ _______ _____ _____    ______ ____

>  <TORSDO>
F 5

>  <SCORE>
-5.054

>  <RMSD_LB>
13.049

>  <RMSD_UB>
14.663

$$$$
CHEMBL76731
 OpenBabel10162523323D

 17 17  0  0  0  0  0  0  0  0999 V2000
  134.6520  134.3090  151.9280 C   0  0  0  0  0  0  0  0  0  0  0  0
  135.4370  135.2100  151.2030 C   0  0  0  0  0  3  0  0  0  0  0  0
  136.3260  136.0810  151.8600 C   0  0  0  0  0  0  0  0  0  0  0  0
  136.3940  136.0610  153.2590 C   0  0  0  0  0  3  0  0  0  0  0  0
  135.6140  135.1680  153.9910 C   0  0  0  0  0  3  0  0  0  0  0  0
  134.7520  134.2970  153.3250 C   0  0  0  0  0  0  0  0  0  0  0  0
  133.8460  133.1970  149.9760 C   0  0  0  0  0  1  0  0  0  0  0  0
  133.7740  133.4110  151.3780 O   0  0  0  0  0  0  0  0  0  0  0  0
  133.9910  133.4120  154.0440 O   0  0  0  0  0  0  0  0  0  0  0  0
  133.9710  133.4640  154.9790 H   0  0  0  0  0  0  0  0  0  0  0  0
  137.1850  137.0320  151.0720 C   0  0  0  0  0  2  0  0  0  0  0  0
  138.0900  137.7670  151.9230 N   0  0  0  0  0  0  0  0  0  0  0  0
  139.4510  137.7010  151.7000 C   0  0  0  0  0  0  0  0  0  0  0  0
  139.9380  137.1230  150.7310 O   0  0  0  0  0  0  0  0  0  0  0  0
  137.7380  138.3140  152.6610 H   0  0  0  0  0  0  0  0  0  0  0  0
  140.3010  138.4600  152.6910 C   0  0  0  0  0  2  0  0  0  0  0  0
  142.1000  137.7320  152.6480 Br  0  0  0  0  0  0  0  0  0  0  0  0
  1  6  1  0  0  0  0
  2  3  1  0  0  0  0
  2  1  2  0  0  0  0
  3  4  2  0  0  0  0
  4  5  1  0  0  0  0
  6  5  2  0  0  0  0
  6  9  1  0  0  0  0
  7  8  1  0  0  0  0
  8  1  1  0  0  0  0
  9 10  1  0  0  0  0
 11  3  1  0  0  0  0
 11 12  1  0  0  0  0
 12 15  1  0  0  0  0
 13 12  1  0  0  0  0
 13 16  1  0  0  0  0
 14 13  2  0  0  0  0
 17 16  1  0  0  0  0
M  END
>  <MODEL>
6

>  <REMARK>
 VINA RESULT:    -5.040     10.761     12.502
 INTER + INTRA:          -6.688
 INTER:                  -6.443
 INTRA:                  -0.245
 UNBOUND:                -0.322
  Name = CHEMBL76731
  6 active torsions:
  status: ('A' for Active; 'I' for Inactive)
    1  A    between atoms: C_1  and  O_2
    2  A    between atoms: O_2  and  C_3
    3  A    between atoms: C_5  and  C_6
    4  A    between atoms: C_6  and  N_7
    5  A    between atoms: C_8  and  C_10
    6  A    between atoms: C_14  and  O_15
                            x       y       z     vdW  Elec       q    Type
                         _______ _______ _______ _____ _____    ______ ____

>  <TORSDO>
F 5

>  <SCORE>
-5.040

>  <RMSD_LB>
10.761

>  <RMSD_UB>
12.502

$$$$
CHEMBL76731
 OpenBabel10162523323D

 17 17  0  0  0  0  0  0  0  0999 V2000
  148.1440  139.5340  154.1840 C   0  0  0  0  0  0  0  0  0  0  0  0
  147.7340  139.3870  152.8550 C   0  0  0  0  0  3  0  0  0  0  0  0
  146.8490  138.3580  152.4840 C   0  0  0  0  0  0  0  0  0  0  0  0
  146.4020  137.4550  153.4580 C   0  0  0  0  0  3  0  0  0  0  0  0
  146.8070  137.5910  154.7860 C   0  0  0  0  0  3  0  0  0  0  0  0
  147.6690  138.6270  155.1410 C   0  0  0  0  0  0  0  0  0  0  0  0
  148.6470  141.8610  154.3530 C   0  0  0  0  0  1  0  0  0  0  0  0
  148.9860  140.5130  154.6440 O   0  0  0  0  0  0  0  0  0  0  0  0
  148.0610  138.7670  156.4480 O   0  0  0  0  0  0  0  0  0  0  0  0
  148.8180  138.3130  156.7610 H   0  0  0  0  0  0  0  0  0  0  0  0
  146.3930  138.2210  151.0570 C   0  0  0  0  0  2  0  0  0  0  0  0
  146.1460  139.5050  150.4480 N   0  0  0  0  0  0  0  0  0  0  0  0
  146.5680  139.7470  149.1560 C   0  0  0  0  0  0  0  0  0  0  0  0
  147.0600  138.8750  148.4430 O   0  0  0  0  0  0  0  0  0  0  0  0
  145.6770  140.2080  150.9520 H   0  0  0  0  0  0  0  0  0  0  0  0
  146.3090  141.1460  148.6480 C   0  0  0  0  0  2  0  0  0  0  0  0
  146.4460  142.3810  150.1390 Br  0  0  0  0  0  0  0  0  0  0  0  0
  1  8  1  0  0  0  0
  1  6  1  0  0  0  0
  2  1  2  0  0  0  0
  3  2  1  0  0  0  0
  3  4  2  0  0  0  0
  4  5  1  0  0  0  0
  5  6  2  0  0  0  0
  6  9  1  0  0  0  0
  7  8  1  0  0  0  0
  9 10  1  0  0  0  0
 11  3  1  0  0  0  0
 12 15  1  0  0  0  0
 12 11  1  0  0  0  0
 13 12  1  0  0  0  0
 14 13  2  0  0  0  0
 16 13  1  0  0  0  0
 16 17  1  0  0  0  0
M  END
>  <MODEL>
7

>  <REMARK>
 VINA RESULT:    -4.985      2.605      3.718
 INTER + INTRA:          -6.619
 INTER:                  -6.255
 INTRA:                  -0.363
 UNBOUND:                -0.322
  Name = CHEMBL76731
  6 active torsions:
  status: ('A' for Active; 'I' for Inactive)
    1  A    between atoms: C_1  and  O_2
    2  A    between atoms: O_2  and  C_3
    3  A    between atoms: C_5  and  C_6
    4  A    between atoms: C_6  and  N_7
    5  A    between atoms: C_8  and  C_10
    6  A    between atoms: C_14  and  O_15
                            x       y       z     vdW  Elec       q    Type
                         _______ _______ _______ _____ _____    ______ ____

>  <TORSDO>
F 5

>  <SCORE>
-4.985

>  <RMSD_LB>
2.605

>  <RMSD_UB>
3.718

$$$$
CHEMBL76731
 OpenBabel10162523323D

 17 17  0  0  0  0  0  0  0  0999 V2000
  134.5540  134.5250  150.0540 C   0  0  0  0  0  0  0  0  0  0  0  0
  135.3280  133.8620  149.0960 C   0  0  0  0  0  3  0  0  0  0  0  0
  134.7210  133.0910  148.0880 C   0  0  0  0  0  0  0  0  0  0  0  0
  133.3260  132.9630  148.0710 C   0  0  0  0  0  3  0  0  0  0  0  0
  132.5450  133.6180  149.0230 C   0  0  0  0  0  3  0  0  0  0  0  0
  133.1600  134.3950  150.0040 C   0  0  0  0  0  0  0  0  0  0  0  0
  135.8940  134.6950  152.0220 C   0  0  0  0  0  1  0  0  0  0  0  0
  135.0520  135.3130  151.0600 O   0  0  0  0  0  0  0  0  0  0  0  0
  132.3930  135.0460  150.9350 O   0  0  0  0  0  0  0  0  0  0  0  0
  132.7000  135.1330  151.8160 H   0  0  0  0  0  0  0  0  0  0  0  0
  135.5590  132.4000  147.0470 C   0  0  0  0  0  2  0  0  0  0  0  0
  135.9460  133.3000  145.9880 N   0  0  0  0  0  0  0  0  0  0  0  0
  135.4950  133.0850  144.7010 C   0  0  0  0  0  0  0  0  0  0  0  0
  134.6770  132.2110  144.4220 O   0  0  0  0  0  0  0  0  0  0  0  0
  136.5320  134.0670  146.1820 H   0  0  0  0  0  0  0  0  0  0  0  0
  136.0160  134.0550  143.6680 C   0  0  0  0  0  2  0  0  0  0  0  0
  137.0880  133.0720  142.3820 Br  0  0  0  0  0  0  0  0  0  0  0  0
  1  8  1  0  0  0  0
  2  1  2  0  0  0  0
  3  2  1  0  0  0  0
  4  3  2  0  0  0  0
  4  5  1  0  0  0  0
  5  6  2  0  0  0  0
  6  1  1  0  0  0  0
  6  9  1  0  0  0  0
  8  7  1  0  0  0  0
  9 10  1  0  0  0  0
 11  3  1  0  0  0  0
 12 15  1  0  0  0  0
 12 11  1  0  0  0  0
 13 12  1  0  0  0  0
 14 13  2  0  0  0  0
 16 13  1  0  0  0  0
 17 16  1  0  0  0  0
M  END
>  <MODEL>
8

>  <REMARK>
 VINA RESULT:    -4.787     13.375     14.946
 INTER + INTRA:          -6.368
 INTER:                  -6.102
 INTRA:                  -0.266
 UNBOUND:                -0.322
  Name = CHEMBL76731
  6 active torsions:
  status: ('A' for Active; 'I' for Inactive)
    1  A    between atoms: C_1  and  O_2
    2  A    between atoms: O_2  and  C_3
    3  A    between atoms: C_5  and  C_6
    4  A    between atoms: C_6  and  N_7
    5  A    between atoms: C_8  and  C_10
    6  A    between atoms: C_14  and  O_15
                            x       y       z     vdW  Elec       q    Type
                         _______ _______ _______ _____ _____    ______ ____

>  <TORSDO>
F 5

>  <SCORE>
-4.787

>  <RMSD_LB>
13.375

>  <RMSD_UB>
14.946

$$$$
CHEMBL76731
 OpenBabel10162523323D

 17 17  0  0  0  0  0  0  0  0999 V2000
  134.7320  135.2160  146.7370 C   0  0  0  0  0  0  0  0  0  0  0  0
  134.2290  135.5260  148.0040 C   0  0  0  0  0  3  0  0  0  0  0  0
  133.2490  136.5220  148.1660 C   0  0  0  0  0  0  0  0  0  0  0  0
  132.7990  137.2290  147.0430 C   0  0  0  0  0  3  0  0  0  0  0  0
  133.2950  136.9290  145.7750 C   0  0  0  0  0  3  0  0  0  0  0  0
  134.2520  135.9260  145.6270 C   0  0  0  0  0  0  0  0  0  0  0  0
  135.3520  132.9130  146.8280 C   0  0  0  0  0  1  0  0  0  0  0  0
  135.6710  134.2520  146.4770 O   0  0  0  0  0  0  0  0  0  0  0  0
  134.7340  135.6240  144.3800 O   0  0  0  0  0  0  0  0  0  0  0  0
  135.6340  135.7850  144.1740 H   0  0  0  0  0  0  0  0  0  0  0  0
  132.6960  136.8350  149.5300 C   0  0  0  0  0  2  0  0  0  0  0  0
  133.5040  136.2620  150.5800 N   0  0  0  0  0  0  0  0  0  0  0  0
  133.0450  135.1670  151.2820 C   0  0  0  0  0  0  0  0  0  0  0  0
  132.0100  134.5740  150.9860 O   0  0  0  0  0  0  0  0  0  0  0  0
  134.3820  136.6530  150.7940 H   0  0  0  0  0  0  0  0  0  0  0  0
  133.9480  134.6950  152.3970 C   0  0  0  0  0  2  0  0  0  0  0  0
  135.7160  134.3680  151.6640 Br  0  0  0  0  0  0  0  0  0  0  0  0
  1  2  1  0  0  0  0
  2  3  2  0  0  0  0
  3 11  1  0  0  0  0
  4  3  1  0  0  0  0
  5  4  2  0  0  0  0
  6  5  1  0  0  0  0
  6  1  2  0  0  0  0
  8  1  1  0  0  0  0
  8  7  1  0  0  0  0
  9  6  1  0  0  0  0
 10  9  1  0  0  0  0
 11 12  1  0  0  0  0
 12 15  1  0  0  0  0
 12 13  1  0  0  0  0
 13 16  1  0  0  0  0
 14 13  2  0  0  0  0
 17 16  1  0  0  0  0
M  END
>  <MODEL>
9

>  <REMARK>
 VINA RESULT:    -4.754     14.383     15.410
 INTER + INTRA:          -6.327
 INTER:                  -6.005
 INTRA:                  -0.322
 UNBOUND:                -0.322
  Name = CHEMBL76731
  6 active torsions:
  status: ('A' for Active; 'I' for Inactive)
    1  A    between atoms: C_1  and  O_2
    2  A    between atoms: O_2  and  C_3
    3  A    between atoms: C_5  and  C_6
    4  A    between atoms: C_6  and  N_7
    5  A    between atoms: C_8  and  C_10
    6  A    between atoms: C_14  and  O_15
                            x       y       z     vdW  Elec       q    Type
                         _______ _______ _______ _____ _____    ______ ____

>  <TORSDO>
F 5

>  <SCORE>
-4.754

>  <RMSD_LB>
14.383

>  <RMSD_UB>
15.410

$$$$
