CHEMBL264772
 OpenBabel10162523333D

 27 28  0  0  0  0  0  0  0  0999 V2000
  134.5710  134.7470  154.8250 N   0  0  0  0  0  0  0  0  0  0  0  0
  134.3430  133.6710  154.0030 C   0  0  0  0  0  0  0  0  0  0  0  0
  134.2000  132.5190  154.3890 O   0  0  0  0  0  0  0  0  0  0  0  0
  134.6420  135.6430  154.4260 H   0  0  0  0  0  0  0  0  0  0  0  0
  134.2800  134.0480  152.5690 C   0  0  0  0  0  3  0  0  0  0  0  0
  133.1460  134.5400  152.0420 C   0  0  0  0  0  3  0  0  0  0  0  0
  133.0110  134.9390  150.6330 C   0  0  0  0  0  0  0  0  0  0  0  0
  133.0270  136.3040  150.2950 C   0  0  0  0  0  3  0  0  0  0  0  0
  132.9250  136.7200  148.9600 C   0  0  0  0  0  3  0  0  0  0  0  0
  132.8150  135.7630  147.9610 C   0  0  0  0  0  0  0  0  0  0  0  0
  132.8120  134.4100  148.2830 C   0  0  0  0  0  0  0  0  0  0  0  0
  132.9190  133.9910  149.6020 C   0  0  0  0  0  3  0  0  0  0  0  0
  132.7100  136.1000  146.6400 O   0  0  0  0  0  0  0  0  0  0  0  0
  131.9210  136.4890  146.3170 H   0  0  0  0  0  0  0  0  0  0  0  0
  132.7090  133.4720  147.2980 O   0  0  0  0  0  0  0  0  0  0  0  0
  133.3660  132.8100  147.2100 H   0  0  0  0  0  0  0  0  0  0  0  0
  134.7080  134.6070  156.2580 C   0  0  0  0  0  2  0  0  0  0  0  0
  136.9460  137.6830  156.6550 C   0  0  0  0  0  0  0  0  0  0  0  0
  136.1070  136.7100  156.0990 C   0  0  0  0  0  3  0  0  0  0  0  0
  135.6600  135.6120  156.8580 C   0  0  0  0  0  0  0  0  0  0  0  0
  136.0640  135.5050  158.1960 C   0  0  0  0  0  3  0  0  0  0  0  0
  136.8990  136.4710  158.7640 C   0  0  0  0  0  3  0  0  0  0  0  0
  137.3350  137.5490  157.9940 C   0  0  0  0  0  0  0  0  0  0  0  0
  138.2240  138.5510  154.8410 C   0  0  0  0  0  1  0  0  0  0  0  0
  137.4220  138.7820  155.9900 O   0  0  0  0  0  0  0  0  0  0  0  0
  138.1500  138.4980  158.5530 O   0  0  0  0  0  0  0  0  0  0  0  0
  138.0530  139.3990  158.3130 H   0  0  0  0  0  0  0  0  0  0  0  0
  1 17  1  0  0  0  0
  2  3  2  0  0  0  0
  2  1  1  0  0  0  0
  4  1  1  0  0  0  0
  5  2  1  0  0  0  0
  6  5  2  0  0  0  0
  7  6  1  0  0  0  0
  8  7  1  0  0  0  0
  9  8  2  0  0  0  0
 10 11  2  0  0  0  0
 10  9  1  0  0  0  0
 11 12  1  0  0  0  0
 12  7  2  0  0  0  0
 13 10  1  0  0  0  0
 14 13  1  0  0  0  0
 15 11  1  0  0  0  0
 16 15  1  0  0  0  0
 17 20  1  0  0  0  0
 18 23  1  0  0  0  0
 19 18  2  0  0  0  0
 19 20  1  0  0  0  0
 20 21  2  0  0  0  0
 21 22  1  0  0  0  0
 23 26  1  0  0  0  0
 23 22  2  0  0  0  0
 24 25  1  0  0  0  0
 25 18  1  0  0  0  0
 27 26  1  0  0  0  0
M  END
>  <MODEL>
1

>  <REMARK>
 VINA RESULT:    -7.675      0.000      0.000
 INTER + INTRA:         -11.015
 INTER:                 -10.520
 INTRA:                  -0.495
 UNBOUND:                -0.424
  Name = CHEMBL264772
  9 active torsions:
  status: ('A' for Active; 'I' for Inactive)
    1  A    between atoms: C_1  and  O_2
    2  A    between atoms: O_2  and  C_3
    3  A    between atoms: C_5  and  C_6
    4  A    between atoms: C_6  and  N_7
    5  A    between atoms: C_8  and  C_10
    6  A    between atoms: C_11  and  C_12
    7  A    between atoms: C_15  and  O_16
    8  A    between atoms: C_17  and  O_18
    9  A    between atoms: C_22  and  O_23
                            x       y       z     vdW  Elec       q    Type
                         _______ _______ _______ _____ _____    ______ ____

>  <TORSDO>
F 8

>  <SCORE>
-7.675

>  <RMSD_LB>
0.000

>  <RMSD_UB>
0.000

$$$$
CHEMBL264772
 OpenBabel10162523333D

 27 28  0  0  0  0  0  0  0  0999 V2000
  134.6290  134.5860  152.2540 N   0  0  0  0  0  0  0  0  0  0  0  0
  134.8650  134.7570  153.5960 C   0  0  0  0  0  0  0  0  0  0  0  0
  134.0760  134.4620  154.4830 O   0  0  0  0  0  0  0  0  0  0  0  0
  135.3370  134.8240  151.6130 H   0  0  0  0  0  0  0  0  0  0  0  0
  136.2000  135.3410  153.8740 C   0  0  0  0  0  3  0  0  0  0  0  0
  136.3580  136.2530  154.8480 C   0  0  0  0  0  3  0  0  0  0  0  0
  137.6500  136.8700  155.1830 C   0  0  0  0  0  0  0  0  0  0  0  0
  138.3220  136.4780  156.3540 C   0  0  0  0  0  3  0  0  0  0  0  0
  139.5670  137.0270  156.6930 C   0  0  0  0  0  3  0  0  0  0  0  0
  140.1430  137.9670  155.8480 C   0  0  0  0  0  0  0  0  0  0  0  0
  139.4930  138.3510  154.6800 C   0  0  0  0  0  0  0  0  0  0  0  0
  138.2630  137.8060  154.3360 C   0  0  0  0  0  3  0  0  0  0  0  0
  141.3520  138.5430  156.1180 O   0  0  0  0  0  0  0  0  0  0  0  0
  141.6690  138.5750  157.0000 H   0  0  0  0  0  0  0  0  0  0  0  0
  140.0640  139.2700  153.8490 O   0  0  0  0  0  0  0  0  0  0  0  0
  139.5260  139.7910  153.2850 H   0  0  0  0  0  0  0  0  0  0  0  0
  133.3760  134.0670  151.7520 C   0  0  0  0  0  2  0  0  0  0  0  0
  132.9960  134.7110  148.0000 C   0  0  0  0  0  0  0  0  0  0  0  0
  132.9430  134.8700  149.3900 C   0  0  0  0  0  3  0  0  0  0  0  0
  133.3860  133.8530  150.2570 C   0  0  0  0  0  0  0  0  0  0  0  0
  133.8930  132.6680  149.7070 C   0  0  0  0  0  3  0  0  0  0  0  0
  133.9550  132.4990  148.3220 C   0  0  0  0  0  3  0  0  0  0  0  0
  133.5060  133.5160  147.4790 C   0  0  0  0  0  0  0  0  0  0  0  0
  132.9680  136.9970  147.3290 C   0  0  0  0  0  1  0  0  0  0  0  0
  132.5910  135.6500  147.0870 O   0  0  0  0  0  0  0  0  0  0  0  0
  133.5710  133.3510  146.1210 O   0  0  0  0  0  0  0  0  0  0  0  0
  134.3360  132.9760  145.7300 H   0  0  0  0  0  0  0  0  0  0  0  0
  1  2  1  0  0  0  0
  2  5  1  0  0  0  0
  2  3  2  0  0  0  0
  4  1  1  0  0  0  0
  5  6  2  0  0  0  0
  6  7  1  0  0  0  0
  7  8  1  0  0  0  0
  8  9  2  0  0  0  0
 10 13  1  0  0  0  0
 10  9  1  0  0  0  0
 11 10  2  0  0  0  0
 12 11  1  0  0  0  0
 12  7  2  0  0  0  0
 13 14  1  0  0  0  0
 15 11  1  0  0  0  0
 16 15  1  0  0  0  0
 17  1  1  0  0  0  0
 18 19  1  0  0  0  0
 19 20  2  0  0  0  0
 20 17  1  0  0  0  0
 21 20  1  0  0  0  0
 22 21  2  0  0  0  0
 23 18  2  0  0  0  0
 23 22  1  0  0  0  0
 25 24  1  0  0  0  0
 25 18  1  0  0  0  0
 26 23  1  0  0  0  0
 27 26  1  0  0  0  0
M  END
>  <MODEL>
2

>  <REMARK>
 VINA RESULT:    -7.518      2.018      8.935
 INTER + INTRA:         -10.800
 INTER:                 -10.416
 INTRA:                  -0.383
 UNBOUND:                -0.424
  Name = CHEMBL264772
  9 active torsions:
  status: ('A' for Active; 'I' for Inactive)
    1  A    between atoms: C_1  and  O_2
    2  A    between atoms: O_2  and  C_3
    3  A    between atoms: C_5  and  C_6
    4  A    between atoms: C_6  and  N_7
    5  A    between atoms: C_8  and  C_10
    6  A    between atoms: C_11  and  C_12
    7  A    between atoms: C_15  and  O_16
    8  A    between atoms: C_17  and  O_18
    9  A    between atoms: C_22  and  O_23
                            x       y       z     vdW  Elec       q    Type
                         _______ _______ _______ _____ _____    ______ ____

>  <TORSDO>
F 8

>  <SCORE>
-7.518

>  <RMSD_LB>
2.018

>  <RMSD_UB>
8.935

$$$$
CHEMBL264772
 OpenBabel10162523333D

 27 28  0  0  0  0  0  0  0  0999 V2000
  138.6240  137.5230  155.3600 N   0  0  0  0  0  0  0  0  0  0  0  0
  139.3300  138.5120  154.7200 C   0  0  0  0  0  0  0  0  0  0  0  0
  138.8650  139.5950  154.3900 O   0  0  0  0  0  0  0  0  0  0  0  0
  139.0910  136.6950  155.6150 H   0  0  0  0  0  0  0  0  0  0  0  0
  140.7430  138.1370  154.4680 C   0  0  0  0  0  3  0  0  0  0  0  0
  141.1900  137.9630  153.2120 C   0  0  0  0  0  3  0  0  0  0  0  0
  142.5760  137.5960  152.8860 C   0  0  0  0  0  0  0  0  0  0  0  0
  142.9250  137.3260  151.5510 C   0  0  0  0  0  3  0  0  0  0  0  0
  144.2410  136.9970  151.1990 C   0  0  0  0  0  3  0  0  0  0  0  0
  145.2130  136.9460  152.1900 C   0  0  0  0  0  0  0  0  0  0  0  0
  144.8810  137.2260  153.5110 C   0  0  0  0  0  0  0  0  0  0  0  0
  143.5800  137.5590  153.8650 C   0  0  0  0  0  3  0  0  0  0  0  0
  146.5140  136.6310  151.9170 O   0  0  0  0  0  0  0  0  0  0  0  0
  146.9880  136.0630  152.4910 H   0  0  0  0  0  0  0  0  0  0  0  0
  145.8390  137.1810  154.4820 O   0  0  0  0  0  0  0  0  0  0  0  0
  146.3430  137.9460  154.6790 H   0  0  0  0  0  0  0  0  0  0  0  0
  137.2180  137.6580  155.6720 C   0  0  0  0  0  2  0  0  0  0  0  0
  134.7820  134.7090  155.6400 C   0  0  0  0  0  0  0  0  0  0  0  0
  135.5960  135.7580  156.0830 C   0  0  0  0  0  3  0  0  0  0  0  0
  136.3940  136.4920  155.1840 C   0  0  0  0  0  0  0  0  0  0  0  0
  136.3590  136.1600  153.8230 C   0  0  0  0  0  3  0  0  0  0  0  0
  135.5490  135.1170  153.3670 C   0  0  0  0  0  3  0  0  0  0  0  0
  134.7690  134.3990  154.2740 C   0  0  0  0  0  0  0  0  0  0  0  0
  133.6560  134.4720  157.7270 C   0  0  0  0  0  1  0  0  0  0  0  0
  133.9730  133.9500  156.4440 O   0  0  0  0  0  0  0  0  0  0  0  0
  133.9710  133.3800  153.8260 O   0  0  0  0  0  0  0  0  0  0  0  0
  133.8010  132.6420  154.3780 H   0  0  0  0  0  0  0  0  0  0  0  0
  1  4  1  0  0  0  0
  1 17  1  0  0  0  0
  2  1  1  0  0  0  0
  3  2  2  0  0  0  0
  5  2  1  0  0  0  0
  6  5  2  0  0  0  0
  7  6  1  0  0  0  0
  7 12  1  0  0  0  0
  8  7  2  0  0  0  0
  9  8  1  0  0  0  0
  9 10  2  0  0  0  0
 10 11  1  0  0  0  0
 11 12  2  0  0  0  0
 11 15  1  0  0  0  0
 13 10  1  0  0  0  0
 13 14  1  0  0  0  0
 15 16  1  0  0  0  0
 18 19  1  0  0  0  0
 18 25  1  0  0  0  0
 20 17  1  0  0  0  0
 20 19  2  0  0  0  0
 21 20  1  0  0  0  0
 22 21  2  0  0  0  0
 22 23  1  0  0  0  0
 23 18  2  0  0  0  0
 25 24  1  0  0  0  0
 26 23  1  0  0  0  0
 26 27  1  0  0  0  0
M  END
>  <MODEL>
3

>  <REMARK>
 VINA RESULT:    -7.407      4.659      8.952
 INTER + INTRA:         -10.646
 INTER:                 -10.186
 INTRA:                  -0.461
 UNBOUND:                -0.424
  Name = CHEMBL264772
  9 active torsions:
  status: ('A' for Active; 'I' for Inactive)
    1  A    between atoms: C_1  and  O_2
    2  A    between atoms: O_2  and  C_3
    3  A    between atoms: C_5  and  C_6
    4  A    between atoms: C_6  and  N_7
    5  A    between atoms: C_8  and  C_10
    6  A    between atoms: C_11  and  C_12
    7  A    between atoms: C_15  and  O_16
    8  A    between atoms: C_17  and  O_18
    9  A    between atoms: C_22  and  O_23
                            x       y       z     vdW  Elec       q    Type
                         _______ _______ _______ _____ _____    ______ ____

>  <TORSDO>
F 8

>  <SCORE>
-7.407

>  <RMSD_LB>
4.659

>  <RMSD_UB>
8.952

$$$$
CHEMBL264772
 OpenBabel10162523333D

 27 28  0  0  0  0  0  0  0  0999 V2000
  134.0390  136.0390  151.5940 N   0  0  0  0  0  0  0  0  0  0  0  0
  134.6750  135.0150  152.2520 C   0  0  0  0  0  0  0  0  0  0  0  0
  134.2990  133.8510  152.2570 O   0  0  0  0  0  0  0  0  0  0  0  0
  134.4330  136.9390  151.6210 H   0  0  0  0  0  0  0  0  0  0  0  0
  135.8930  135.4650  152.9700 C   0  0  0  0  0  3  0  0  0  0  0  0
  135.7940  136.1600  154.1160 C   0  0  0  0  0  3  0  0  0  0  0  0
  136.9560  136.6340  154.8830 C   0  0  0  0  0  0  0  0  0  0  0  0
  137.3810  135.9130  156.0120 C   0  0  0  0  0  3  0  0  0  0  0  0
  138.4990  136.3210  156.7540 C   0  0  0  0  0  3  0  0  0  0  0  0
  139.1970  137.4530  156.3540 C   0  0  0  0  0  0  0  0  0  0  0  0
  138.7930  138.1650  155.2300 C   0  0  0  0  0  0  0  0  0  0  0  0
  137.6910  137.7620  154.4880 C   0  0  0  0  0  3  0  0  0  0  0  0
  140.2930  137.9070  157.0320 O   0  0  0  0  0  0  0  0  0  0  0  0
  140.1940  138.2830  157.8840 H   0  0  0  0  0  0  0  0  0  0  0  0
  139.4850  139.2730  154.8360 O   0  0  0  0  0  0  0  0  0  0  0  0
  140.2220  139.1880  154.2640 H   0  0  0  0  0  0  0  0  0  0  0  0
  132.8090  135.8350  150.8590 C   0  0  0  0  0  2  0  0  0  0  0  0
  133.6320  134.8540  147.2550 C   0  0  0  0  0  0  0  0  0  0  0  0
  133.5020  134.8160  148.6480 C   0  0  0  0  0  3  0  0  0  0  0  0
  132.9980  135.9180  149.3640 C   0  0  0  0  0  0  0  0  0  0  0  0
  132.6170  137.0670  148.6570 C   0  0  0  0  0  3  0  0  0  0  0  0
  132.7380  137.1170  147.2660 C   0  0  0  0  0  3  0  0  0  0  0  0
  133.2440  136.0150  146.5750 C   0  0  0  0  0  0  0  0  0  0  0  0
  135.1070  132.9930  147.0520 C   0  0  0  0  0  1  0  0  0  0  0  0
  134.1070  133.8270  146.4820 O   0  0  0  0  0  0  0  0  0  0  0  0
  133.3590  136.0640  145.2110 O   0  0  0  0  0  0  0  0  0  0  0  0
  133.0090  136.7920  144.7370 H   0  0  0  0  0  0  0  0  0  0  0  0
  1  4  1  0  0  0  0
  1  2  1  0  0  0  0
  2  3  2  0  0  0  0
  2  5  1  0  0  0  0
  5  6  2  0  0  0  0
  6  7  1  0  0  0  0
  7  8  1  0  0  0  0
  8  9  2  0  0  0  0
 10  9  1  0  0  0  0
 10 13  1  0  0  0  0
 11 10  2  0  0  0  0
 12  7  2  0  0  0  0
 12 11  1  0  0  0  0
 13 14  1  0  0  0  0
 15 11  1  0  0  0  0
 16 15  1  0  0  0  0
 17  1  1  0  0  0  0
 18 19  1  0  0  0  0
 19 20  2  0  0  0  0
 20 17  1  0  0  0  0
 21 20  1  0  0  0  0
 22 21  2  0  0  0  0
 23 18  2  0  0  0  0
 23 22  1  0  0  0  0
 25 24  1  0  0  0  0
 25 18  1  0  0  0  0
 26 23  1  0  0  0  0
 27 26  1  0  0  0  0
M  END
>  <MODEL>
4

>  <REMARK>
 VINA RESULT:    -7.349      1.960      9.114
 INTER + INTRA:         -10.566
 INTER:                 -10.060
 INTRA:                  -0.506
 UNBOUND:                -0.424
  Name = CHEMBL264772
  9 active torsions:
  status: ('A' for Active; 'I' for Inactive)
    1  A    between atoms: C_1  and  O_2
    2  A    between atoms: O_2  and  C_3
    3  A    between atoms: C_5  and  C_6
    4  A    between atoms: C_6  and  N_7
    5  A    between atoms: C_8  and  C_10
    6  A    between atoms: C_11  and  C_12
    7  A    between atoms: C_15  and  O_16
    8  A    between atoms: C_17  and  O_18
    9  A    between atoms: C_22  and  O_23
                            x       y       z     vdW  Elec       q    Type
                         _______ _______ _______ _____ _____    ______ ____

>  <TORSDO>
F 8

>  <SCORE>
-7.349

>  <RMSD_LB>
1.960

>  <RMSD_UB>
9.114

$$$$
CHEMBL264772
 OpenBabel10162523333D

 27 28  0  0  0  0  0  0  0  0999 V2000
  135.7110  135.2950  153.9810 N   0  0  0  0  0  0  0  0  0  0  0  0
  134.7410  134.3290  153.8630 C   0  0  0  0  0  0  0  0  0  0  0  0
  134.1890  133.7790  154.8050 O   0  0  0  0  0  0  0  0  0  0  0  0
  136.0770  135.7040  153.1650 H   0  0  0  0  0  0  0  0  0  0  0  0
  134.4160  134.0150  152.4500 C   0  0  0  0  0  3  0  0  0  0  0  0
  134.9510  134.7340  151.4490 C   0  0  0  0  0  3  0  0  0  0  0  0
  134.6780  134.4780  150.0270 C   0  0  0  0  0  0  0  0  0  0  0  0
  135.7450  134.4580  149.1100 C   0  0  0  0  0  3  0  0  0  0  0  0
  135.5260  134.1930  147.7510 C   0  0  0  0  0  3  0  0  0  0  0  0
  134.2340  133.9380  147.3120 C   0  0  0  0  0  0  0  0  0  0  0  0
  133.1740  133.9410  148.2130 C   0  0  0  0  0  0  0  0  0  0  0  0
  133.3850  134.1970  149.5610 C   0  0  0  0  0  3  0  0  0  0  0  0
  133.9500  133.6740  146.0010 O   0  0  0  0  0  0  0  0  0  0  0  0
  133.5700  134.3390  145.4620 H   0  0  0  0  0  0  0  0  0  0  0  0
  131.9060  133.6850  147.7800 O   0  0  0  0  0  0  0  0  0  0  0  0
  131.5730  132.8090  147.7950 H   0  0  0  0  0  0  0  0  0  0  0  0
  136.2100  135.7300  155.2670 C   0  0  0  0  0  2  0  0  0  0  0  0
  138.6720  138.2880  153.8410 C   0  0  0  0  0  0  0  0  0  0  0  0
  137.6240  137.3660  153.9500 C   0  0  0  0  0  3  0  0  0  0  0  0
  137.3820  136.6760  155.1520 C   0  0  0  0  0  0  0  0  0  0  0  0
  138.2080  136.9280  156.2550 C   0  0  0  0  0  3  0  0  0  0  0  0
  139.2560  137.8480  156.1610 C   0  0  0  0  0  3  0  0  0  0  0  0
  139.4820  138.5190  154.9590 C   0  0  0  0  0  0  0  0  0  0  0  0
  139.1810  138.2720  151.5130 C   0  0  0  0  0  1  0  0  0  0  0  0
  138.9720  139.0050  152.7120 O   0  0  0  0  0  0  0  0  0  0  0  0
  140.5060  139.4240  154.8690 O   0  0  0  0  0  0  0  0  0  0  0  0
  140.6970  139.9900  155.5910 H   0  0  0  0  0  0  0  0  0  0  0  0
  1 17  1  0  0  0  0
  2  1  1  0  0  0  0
  2  3  2  0  0  0  0
  4  1  1  0  0  0  0
  5  2  1  0  0  0  0
  6  5  2  0  0  0  0
  7  6  1  0  0  0  0
  8  7  2  0  0  0  0
  9  8  1  0  0  0  0
 10  9  2  0  0  0  0
 10 11  1  0  0  0  0
 11 12  2  0  0  0  0
 12  7  1  0  0  0  0
 13 10  1  0  0  0  0
 14 13  1  0  0  0  0
 15 16  1  0  0  0  0
 15 11  1  0  0  0  0
 18 19  2  0  0  0  0
 18 23  1  0  0  0  0
 19 20  1  0  0  0  0
 20 17  1  0  0  0  0
 20 21  2  0  0  0  0
 22 21  1  0  0  0  0
 23 22  2  0  0  0  0
 24 25  1  0  0  0  0
 25 18  1  0  0  0  0
 26 23  1  0  0  0  0
 26 27  1  0  0  0  0
M  END
>  <MODEL>
5

>  <REMARK>
 VINA RESULT:    -7.348      2.067      2.706
 INTER + INTRA:         -10.564
 INTER:                  -9.970
 INTRA:                  -0.595
 UNBOUND:                -0.424
  Name = CHEMBL264772
  9 active torsions:
  status: ('A' for Active; 'I' for Inactive)
    1  A    between atoms: C_1  and  O_2
    2  A    between atoms: O_2  and  C_3
    3  A    between atoms: C_5  and  C_6
    4  A    between atoms: C_6  and  N_7
    5  A    between atoms: C_8  and  C_10
    6  A    between atoms: C_11  and  C_12
    7  A    between atoms: C_15  and  O_16
    8  A    between atoms: C_17  and  O_18
    9  A    between atoms: C_22  and  O_23
                            x       y       z     vdW  Elec       q    Type
                         _______ _______ _______ _____ _____    ______ ____

>  <TORSDO>
F 8

>  <SCORE>
-7.348

>  <RMSD_LB>
2.067

>  <RMSD_UB>
2.706

$$$$
CHEMBL264772
 OpenBabel10162523333D

 27 28  0  0  0  0  0  0  0  0999 V2000
  133.2270  135.4180  151.4150 N   0  0  0  0  0  0  0  0  0  0  0  0
  134.4220  135.8410  151.9420 C   0  0  0  0  0  0  0  0  0  0  0  0
  135.3050  136.3980  151.3050 O   0  0  0  0  0  0  0  0  0  0  0  0
  132.5630  135.0060  152.0120 H   0  0  0  0  0  0  0  0  0  0  0  0
  134.5400  135.5570  153.3940 C   0  0  0  0  0  3  0  0  0  0  0  0
  135.6670  135.8590  154.0600 C   0  0  0  0  0  3  0  0  0  0  0  0
  135.8540  135.6110  155.4980 C   0  0  0  0  0  0  0  0  0  0  0  0
  137.0940  135.8990  156.0940 C   0  0  0  0  0  3  0  0  0  0  0  0
  137.3010  135.6980  157.4670 C   0  0  0  0  0  3  0  0  0  0  0  0
  136.2570  135.2150  158.2430 C   0  0  0  0  0  0  0  0  0  0  0  0
  135.0220  134.9410  157.6650 C   0  0  0  0  0  0  0  0  0  0  0  0
  134.8090  135.1440  156.3080 C   0  0  0  0  0  3  0  0  0  0  0  0
  136.3910  134.9950  159.5860 O   0  0  0  0  0  0  0  0  0  0  0  0
  135.6850  135.2010  160.1660 H   0  0  0  0  0  0  0  0  0  0  0  0
  133.9960  134.4710  158.4320 O   0  0  0  0  0  0  0  0  0  0  0  0
  133.5110  135.0590  158.9780 H   0  0  0  0  0  0  0  0  0  0  0  0
  132.9120  135.5590  150.0100 C   0  0  0  0  0  2  0  0  0  0  0  0
  134.9900  133.9440  147.2330 C   0  0  0  0  0  0  0  0  0  0  0  0
  134.3160  134.8930  148.0110 C   0  0  0  0  0  3  0  0  0  0  0  0
  133.5820  134.5140  149.1510 C   0  0  0  0  0  0  0  0  0  0  0  0
  133.5380  133.1590  149.5060 C   0  0  0  0  0  3  0  0  0  0  0  0
  134.2090  132.2020  148.7410 C   0  0  0  0  0  3  0  0  0  0  0  0
  134.9270  132.5980  147.6120 C   0  0  0  0  0  0  0  0  0  0  0  0
  135.0190  134.6270  144.9500 C   0  0  0  0  0  1  0  0  0  0  0  0
  135.7290  134.2280  146.1140 O   0  0  0  0  0  0  0  0  0  0  0  0
  135.5880  131.6590  146.8640 O   0  0  0  0  0  0  0  0  0  0  0  0
  135.1920  131.3180  146.0860 H   0  0  0  0  0  0  0  0  0  0  0  0
  1  2  1  0  0  0  0
  1  4  1  0  0  0  0
  2  5  1  0  0  0  0
  3  2  2  0  0  0  0
  5  6  2  0  0  0  0
  6  7  1  0  0  0  0
  7  8  2  0  0  0  0
  7 12  1  0  0  0  0
  8  9  1  0  0  0  0
  9 10  2  0  0  0  0
 10 13  1  0  0  0  0
 11 10  1  0  0  0  0
 11 15  1  0  0  0  0
 12 11  2  0  0  0  0
 13 14  1  0  0  0  0
 15 16  1  0  0  0  0
 17  1  1  0  0  0  0
 18 23  2  0  0  0  0
 18 19  1  0  0  0  0
 19 20  2  0  0  0  0
 20 21  1  0  0  0  0
 20 17  1  0  0  0  0
 22 21  2  0  0  0  0
 23 22  1  0  0  0  0
 24 25  1  0  0  0  0
 25 18  1  0  0  0  0
 26 23  1  0  0  0  0
 27 26  1  0  0  0  0
M  END
>  <MODEL>
6

>  <REMARK>
 VINA RESULT:    -7.084      2.623      9.044
 INTER + INTRA:         -10.200
 INTER:                  -9.688
 INTRA:                  -0.512
 UNBOUND:                -0.424
  Name = CHEMBL264772
  9 active torsions:
  status: ('A' for Active; 'I' for Inactive)
    1  A    between atoms: C_1  and  O_2
    2  A    between atoms: O_2  and  C_3
    3  A    between atoms: C_5  and  C_6
    4  A    between atoms: C_6  and  N_7
    5  A    between atoms: C_8  and  C_10
    6  A    between atoms: C_11  and  C_12
    7  A    between atoms: C_15  and  O_16
    8  A    between atoms: C_17  and  O_18
    9  A    between atoms: C_22  and  O_23
                            x       y       z     vdW  Elec       q    Type
                         _______ _______ _______ _____ _____    ______ ____

>  <TORSDO>
F 8

>  <SCORE>
-7.084

>  <RMSD_LB>
2.623

>  <RMSD_UB>
9.044

$$$$
CHEMBL264772
 OpenBabel10162523333D

 27 28  0  0  0  0  0  0  0  0999 V2000
  138.0690  137.5270  151.9380 N   0  0  0  0  0  0  0  0  0  0  0  0
  136.9410  136.7960  152.2200 C   0  0  0  0  0  0  0  0  0  0  0  0
  136.4770  136.6380  153.3400 O   0  0  0  0  0  0  0  0  0  0  0  0
  138.3500  137.6250  151.0000 H   0  0  0  0  0  0  0  0  0  0  0  0
  136.3210  136.2090  151.0060 C   0  0  0  0  0  3  0  0  0  0  0  0
  135.2850  135.3600  151.1110 C   0  0  0  0  0  3  0  0  0  0  0  0
  134.6170  134.7440  149.9540 C   0  0  0  0  0  0  0  0  0  0  0  0
  134.5880  133.3430  149.8380 C   0  0  0  0  0  3  0  0  0  0  0  0
  133.9400  132.7200  148.7620 C   0  0  0  0  0  3  0  0  0  0  0  0
  133.3130  133.5050  147.8040 C   0  0  0  0  0  0  0  0  0  0  0  0
  133.3250  134.8920  147.9190 C   0  0  0  0  0  0  0  0  0  0  0  0
  133.9580  135.5140  148.9850 C   0  0  0  0  0  3  0  0  0  0  0  0
  132.6650  132.9630  146.7300 O   0  0  0  0  0  0  0  0  0  0  0  0
  132.5570  133.4660  145.9470 H   0  0  0  0  0  0  0  0  0  0  0  0
  132.7020  135.6610  146.9790 O   0  0  0  0  0  0  0  0  0  0  0  0
  133.0770  135.7540  146.1250 H   0  0  0  0  0  0  0  0  0  0  0  0
  138.8560  138.1590  152.9740 C   0  0  0  0  0  2  0  0  0  0  0  0
  142.2410  137.2080  151.4650 C   0  0  0  0  0  0  0  0  0  0  0  0
  140.8660  137.4230  151.6220 C   0  0  0  0  0  3  0  0  0  0  0  0
  140.3340  137.8760  152.8440 C   0  0  0  0  0  0  0  0  0  0  0  0
  141.2060  138.1180  153.9130 C   0  0  0  0  0  3  0  0  0  0  0  0
  142.5800  137.9100  153.7690 C   0  0  0  0  0  3  0  0  0  0  0  0
  143.0880  137.4570  152.5510 C   0  0  0  0  0  0  0  0  0  0  0  0
  141.9920  136.3020  149.2750 C   0  0  0  0  0  1  0  0  0  0  0  0
  142.8410  136.7740  150.3120 O   0  0  0  0  0  0  0  0  0  0  0  0
  144.4360  137.2580  152.4100 O   0  0  0  0  0  0  0  0  0  0  0  0
  144.7640  136.7800  151.6740 H   0  0  0  0  0  0  0  0  0  0  0  0
  1  2  1  0  0  0  0
  1 17  1  0  0  0  0
  2  3  2  0  0  0  0
  4  1  1  0  0  0  0
  5  6  2  0  0  0  0
  5  2  1  0  0  0  0
  7  6  1  0  0  0  0
  8  7  1  0  0  0  0
  9  8  2  0  0  0  0
 10 11  2  0  0  0  0
 10  9  1  0  0  0  0
 11 12  1  0  0  0  0
 12  7  2  0  0  0  0
 13 10  1  0  0  0  0
 14 13  1  0  0  0  0
 15 11  1  0  0  0  0
 16 15  1  0  0  0  0
 18 19  2  0  0  0  0
 18 23  1  0  0  0  0
 19 20  1  0  0  0  0
 20 17  1  0  0  0  0
 20 21  2  0  0  0  0
 22 21  1  0  0  0  0
 23 22  2  0  0  0  0
 24 25  1  0  0  0  0
 25 18  1  0  0  0  0
 26 23  1  0  0  0  0
 27 26  1  0  0  0  0
M  END
>  <MODEL>
7

>  <REMARK>
 VINA RESULT:    -7.079      4.092      5.497
 INTER + INTRA:         -10.193
 INTER:                  -9.739
 INTRA:                  -0.454
 UNBOUND:                -0.424
  Name = CHEMBL264772
  9 active torsions:
  status: ('A' for Active; 'I' for Inactive)
    1  A    between atoms: C_1  and  O_2
    2  A    between atoms: O_2  and  C_3
    3  A    between atoms: C_5  and  C_6
    4  A    between atoms: C_6  and  N_7
    5  A    between atoms: C_8  and  C_10
    6  A    between atoms: C_11  and  C_12
    7  A    between atoms: C_15  and  O_16
    8  A    between atoms: C_17  and  O_18
    9  A    between atoms: C_22  and  O_23
                            x       y       z     vdW  Elec       q    Type
                         _______ _______ _______ _____ _____    ______ ____

>  <TORSDO>
F 8

>  <SCORE>
-7.079

>  <RMSD_LB>
4.092

>  <RMSD_UB>
5.497

$$$$
CHEMBL264772
 OpenBabel10162523333D

 27 28  0  0  0  0  0  0  0  0999 V2000
  139.0240  137.3510  151.4400 N   0  0  0  0  0  0  0  0  0  0  0  0
  137.7530  137.1870  151.9340 C   0  0  0  0  0  0  0  0  0  0  0  0
  137.4130  137.4460  153.0800 O   0  0  0  0  0  0  0  0  0  0  0  0
  139.1960  137.1440  150.4940 H   0  0  0  0  0  0  0  0  0  0  0  0
  136.8070  136.6590  150.9190 C   0  0  0  0  0  3  0  0  0  0  0  0
  135.7990  135.8480  151.2800 C   0  0  0  0  0  3  0  0  0  0  0  0
  134.8220  135.2910  150.3320 C   0  0  0  0  0  0  0  0  0  0  0  0
  134.5200  133.9190  150.3750 C   0  0  0  0  0  3  0  0  0  0  0  0
  133.5760  133.3580  149.5030 C   0  0  0  0  0  3  0  0  0  0  0  0
  132.9280  134.1800  148.5910 C   0  0  0  0  0  0  0  0  0  0  0  0
  133.2100  135.5410  148.5500 C   0  0  0  0  0  0  0  0  0  0  0  0
  134.1380  136.1030  149.4150 C   0  0  0  0  0  3  0  0  0  0  0  0
  131.9990  133.6980  147.7110 O   0  0  0  0  0  0  0  0  0  0  0  0
  132.2420  133.0480  147.0820 H   0  0  0  0  0  0  0  0  0  0  0  0
  132.5670  136.3470  147.6560 O   0  0  0  0  0  0  0  0  0  0  0  0
  133.0590  136.8390  147.0290 H   0  0  0  0  0  0  0  0  0  0  0  0
  140.1160  137.8170  152.2650 C   0  0  0  0  0  2  0  0  0  0  0  0
  143.8900  137.2500  151.9990 C   0  0  0  0  0  0  0  0  0  0  0  0
  142.6310  137.6270  152.4820 C   0  0  0  0  0  3  0  0  0  0  0  0
  141.4710  137.4600  151.7030 C   0  0  0  0  0  0  0  0  0  0  0  0
  141.5900  136.8980  150.4250 C   0  0  0  0  0  3  0  0  0  0  0  0
  142.8390  136.5140  149.9320 C   0  0  0  0  0  3  0  0  0  0  0  0
  143.9780  136.6920  150.7180 C   0  0  0  0  0  0  0  0  0  0  0  0
  145.1460  136.7310  153.9560 C   0  0  0  0  0  1  0  0  0  0  0  0
  145.0660  137.3730  152.6920 O   0  0  0  0  0  0  0  0  0  0  0  0
  145.2030  136.3120  150.2360 O   0  0  0  0  0  0  0  0  0  0  0  0
  145.2570  135.7560  149.4830 H   0  0  0  0  0  0  0  0  0  0  0  0
  1  2  1  0  0  0  0
  1 17  1  0  0  0  0
  2  3  2  0  0  0  0
  4  1  1  0  0  0  0
  5  6  2  0  0  0  0
  5  2  1  0  0  0  0
  7  8  1  0  0  0  0
  7  6  1  0  0  0  0
  9  8  2  0  0  0  0
 10  9  1  0  0  0  0
 11 10  2  0  0  0  0
 11 12  1  0  0  0  0
 12  7  2  0  0  0  0
 13 10  1  0  0  0  0
 14 13  1  0  0  0  0
 15 11  1  0  0  0  0
 16 15  1  0  0  0  0
 18 19  1  0  0  0  0
 18 25  1  0  0  0  0
 20 17  1  0  0  0  0
 20 19  2  0  0  0  0
 21 20  1  0  0  0  0
 22 21  2  0  0  0  0
 22 23  1  0  0  0  0
 23 18  2  0  0  0  0
 25 24  1  0  0  0  0
 26 23  1  0  0  0  0
 27 26  1  0  0  0  0
M  END
>  <MODEL>
8

>  <REMARK>
 VINA RESULT:    -6.896      4.902      6.509
 INTER + INTRA:          -9.940
 INTER:                  -9.516
 INTRA:                  -0.424
 UNBOUND:                -0.424
  Name = CHEMBL264772
  9 active torsions:
  status: ('A' for Active; 'I' for Inactive)
    1  A    between atoms: C_1  and  O_2
    2  A    between atoms: O_2  and  C_3
    3  A    between atoms: C_5  and  C_6
    4  A    between atoms: C_6  and  N_7
    5  A    between atoms: C_8  and  C_10
    6  A    between atoms: C_11  and  C_12
    7  A    between atoms: C_15  and  O_16
    8  A    between atoms: C_17  and  O_18
    9  A    between atoms: C_22  and  O_23
                            x       y       z     vdW  Elec       q    Type
                         _______ _______ _______ _____ _____    ______ ____

>  <TORSDO>
F 8

>  <SCORE>
-6.896

>  <RMSD_LB>
4.902

>  <RMSD_UB>
6.509

$$$$
CHEMBL264772
 OpenBabel10162523333D

 27 28  0  0  0  0  0  0  0  0999 V2000
  143.7830  139.2510  151.2820 N   0  0  0  0  0  0  0  0  0  0  0  0
  142.7080  139.7400  150.5810 C   0  0  0  0  0  0  0  0  0  0  0  0
  142.7890  140.3820  149.5430 O   0  0  0  0  0  0  0  0  0  0  0  0
  143.6200  138.7170  152.0920 H   0  0  0  0  0  0  0  0  0  0  0  0
  141.4090  139.4020  151.2150 C   0  0  0  0  0  3  0  0  0  0  0  0
  141.3710  138.7490  152.3880 C   0  0  0  0  0  3  0  0  0  0  0  0
  140.1230  138.3850  153.0770 C   0  0  0  0  0  0  0  0  0  0  0  0
  139.0490  137.8660  152.3330 C   0  0  0  0  0  3  0  0  0  0  0  0
  137.8530  137.4860  152.9590 C   0  0  0  0  0  3  0  0  0  0  0  0
  137.7390  137.6200  154.3370 C   0  0  0  0  0  0  0  0  0  0  0  0
  138.8020  138.1190  155.0820 C   0  0  0  0  0  0  0  0  0  0  0  0
  139.9910  138.4900  154.4690 C   0  0  0  0  0  3  0  0  0  0  0  0
  136.6020  137.2710  155.0100 O   0  0  0  0  0  0  0  0  0  0  0  0
  136.4420  137.6130  155.8670 H   0  0  0  0  0  0  0  0  0  0  0  0
  138.6900  138.2430  156.4360 O   0  0  0  0  0  0  0  0  0  0  0  0
  138.7290  137.4830  156.9830 H   0  0  0  0  0  0  0  0  0  0  0  0
  145.1470  139.4930  150.8670 C   0  0  0  0  0  2  0  0  0  0  0  0
  147.8870  140.0110  153.4860 C   0  0  0  0  0  0  0  0  0  0  0  0
  147.0640  139.4210  152.5200 C   0  0  0  0  0  3  0  0  0  0  0  0
  145.9870  140.1260  151.9500 C   0  0  0  0  0  0  0  0  0  0  0  0
  145.7490  141.4450  152.3610 C   0  0  0  0  0  3  0  0  0  0  0  0
  146.5650  142.0470  153.3210 C   0  0  0  0  0  3  0  0  0  0  0  0
  147.6250  141.3300  153.8770 C   0  0  0  0  0  0  0  0  0  0  0  0
  148.9930  137.9800  154.0570 C   0  0  0  0  0  1  0  0  0  0  0  0
  148.9560  139.3990  154.0860 O   0  0  0  0  0  0  0  0  0  0  0  0
  148.4270  141.9220  154.8160 O   0  0  0  0  0  0  0  0  0  0  0  0
  148.9960  141.3980  155.3440 H   0  0  0  0  0  0  0  0  0  0  0  0
  1  4  1  0  0  0  0
  2  5  1  0  0  0  0
  2  1  1  0  0  0  0
  3  2  2  0  0  0  0
  5  6  2  0  0  0  0
  6  7  1  0  0  0  0
  7 12  1  0  0  0  0
  8  9  1  0  0  0  0
  8  7  2  0  0  0  0
  9 10  2  0  0  0  0
 10 13  1  0  0  0  0
 10 11  1  0  0  0  0
 11 15  1  0  0  0  0
 12 11  2  0  0  0  0
 13 14  1  0  0  0  0
 15 16  1  0  0  0  0
 17  1  1  0  0  0  0
 17 20  1  0  0  0  0
 18 23  1  0  0  0  0
 18 25  1  0  0  0  0
 19 18  2  0  0  0  0
 20 21  2  0  0  0  0
 20 19  1  0  0  0  0
 21 22  1  0  0  0  0
 22 23  2  0  0  0  0
 23 26  1  0  0  0  0
 24 25  1  0  0  0  0
 26 27  1  0  0  0  0
M  END
>  <MODEL>
9

>  <REMARK>
 VINA RESULT:    -6.866      7.388     10.692
 INTER + INTRA:          -9.899
 INTER:                  -9.357
 INTRA:                  -0.542
 UNBOUND:                -0.424
  Name = CHEMBL264772
  9 active torsions:
  status: ('A' for Active; 'I' for Inactive)
    1  A    between atoms: C_1  and  O_2
    2  A    between atoms: O_2  and  C_3
    3  A    between atoms: C_5  and  C_6
    4  A    between atoms: C_6  and  N_7
    5  A    between atoms: C_8  and  C_10
    6  A    between atoms: C_11  and  C_12
    7  A    between atoms: C_15  and  O_16
    8  A    between atoms: C_17  and  O_18
    9  A    between atoms: C_22  and  O_23
                            x       y       z     vdW  Elec       q    Type
                         _______ _______ _______ _____ _____    ______ ____

>  <TORSDO>
F 8

>  <SCORE>
-6.866

>  <RMSD_LB>
7.388

>  <RMSD_UB>
10.692

$$$$
