CHEMBL4474043
 OpenBabel10162523533D

 25 26  0  0  0  0  0  0  0  0999 V2000
  133.5900  134.1510  152.2570 N   0  0  0  0  0  0  0  0  0  0  0  0
  134.9260  134.3010  152.5340 C   0  0  0  0  0  0  0  0  0  0  0  0
  135.8260  134.0210  151.7500 O   0  0  0  0  0  0  0  0  0  0  0  0
  132.9300  134.3870  152.9480 H   0  0  0  0  0  0  0  0  0  0  0  0
  135.1880  134.8500  153.8880 C   0  0  0  0  0  3  0  0  0  0  0  0
  136.2720  135.6150  154.0910 C   0  0  0  0  0  3  0  0  0  0  0  0
  136.5840  136.2070  155.3970 C   0  0  0  0  0  0  0  0  0  0  0  0
  136.1140  135.5630  156.5510 C   0  0  0  0  0  3  0  0  0  0  0  0
  136.3640  136.1010  157.8130 C   0  0  0  0  0  3  0  0  0  0  0  0
  137.0860  137.2860  157.9320 C   0  0  0  0  0  3  0  0  0  0  0  0
  137.5610  137.9350  156.7890 C   0  0  0  0  0  3  0  0  0  0  0  0
  137.3160  137.4060  155.5150 C   0  0  0  0  0  0  0  0  0  0  0  0
  137.7420  137.9760  154.3420 O   0  0  0  0  0  0  0  0  0  0  0  0
  138.7750  138.9480  154.4260 C   0  0  0  0  0  1  0  0  0  0  0  0
  133.1240  133.6590  150.9770 C   0  0  0  0  0  2  0  0  0  0  0  0
  133.4790  135.4800  147.6340 C   0  0  0  0  0  0  0  0  0  0  0  0
  133.4950  134.4840  148.6150 C   0  0  0  0  0  3  0  0  0  0  0  0
  133.0530  134.7410  149.9250 C   0  0  0  0  0  0  0  0  0  0  0  0
  132.6030  136.0300  150.2460 C   0  0  0  0  0  3  0  0  0  0  0  0
  132.5890  137.0370  149.2790 C   0  0  0  0  0  3  0  0  0  0  0  0
  133.0250  136.7580  147.9820 C   0  0  0  0  0  0  0  0  0  0  0  0
  134.0780  133.9760  145.8870 C   0  0  0  0  0  1  0  0  0  0  0  0
  133.8870  135.3120  146.3370 O   0  0  0  0  0  0  0  0  0  0  0  0
  133.0160  137.7480  147.0350 O   0  0  0  0  0  0  0  0  0  0  0  0
  133.8200  138.0320  146.6480 H   0  0  0  0  0  0  0  0  0  0  0  0
  1  2  1  0  0  0  0
  1  4  1  0  0  0  0
  2  5  1  0  0  0  0
  3  2  2  0  0  0  0
  5  6  2  0  0  0  0
  6  7  1  0  0  0  0
  7 12  2  0  0  0  0
  7  8  1  0  0  0  0
  8  9  2  0  0  0  0
  9 10  1  0  0  0  0
 11 10  2  0  0  0  0
 12 11  1  0  0  0  0
 13 14  1  0  0  0  0
 13 12  1  0  0  0  0
 15  1  1  0  0  0  0
 16 21  2  0  0  0  0
 16 17  1  0  0  0  0
 17 18  2  0  0  0  0
 18 19  1  0  0  0  0
 18 15  1  0  0  0  0
 20 19  2  0  0  0  0
 21 20  1  0  0  0  0
 22 23  1  0  0  0  0
 23 16  1  0  0  0  0
 24 21  1  0  0  0  0
 25 24  1  0  0  0  0
M  END
>  <MODEL>
1

>  <REMARK>
 VINA RESULT:    -7.316      0.000      0.000
 INTER + INTRA:         -10.831
 INTER:                 -10.187
 INTRA:                  -0.643
 UNBOUND:                -0.735
  Name = CHEMBL4474043
  9 active torsions:
  status: ('A' for Active; 'I' for Inactive)
    1  A    between atoms: C_1  and  O_2
    2  A    between atoms: O_2  and  C_3
    3  A    between atoms: C_5  and  C_6
    4  A    between atoms: C_6  and  N_7
    5  A    between atoms: C_8  and  C_10
    6  A    between atoms: C_11  and  C_12
    7  A    between atoms: C_17  and  O_18
    8  A    between atoms: O_18  and  C_19
    9  A    between atoms: C_22  and  O_23
                            x       y       z     vdW  Elec       q    Type
                         _______ _______ _______ _____ _____    ______ ____

>  <TORSDO>
F 7

>  <SCORE>
-7.316

>  <RMSD_LB>
0.000

>  <RMSD_UB>
0.000

$$$$
CHEMBL4474043
 OpenBabel10162523533D

 25 26  0  0  0  0  0  0  0  0999 V2000
  134.2210  135.3460  152.1850 N   0  0  0  0  0  0  0  0  0  0  0  0
  134.6640  134.6870  153.3050 C   0  0  0  0  0  0  0  0  0  0  0  0
  134.0580  133.7730  153.8510 O   0  0  0  0  0  0  0  0  0  0  0  0
  134.7630  136.0800  151.8170 H   0  0  0  0  0  0  0  0  0  0  0  0
  135.9740  135.1830  153.7990 C   0  0  0  0  0  3  0  0  0  0  0  0
  136.0190  136.3110  154.5250 C   0  0  0  0  0  3  0  0  0  0  0  0
  137.2740  136.8510  155.0620 C   0  0  0  0  0  0  0  0  0  0  0  0
  138.0560  137.6710  154.2340 C   0  0  0  0  0  3  0  0  0  0  0  0
  139.2680  138.1880  154.6910 C   0  0  0  0  0  3  0  0  0  0  0  0
  139.7080  137.8900  155.9770 C   0  0  0  0  0  3  0  0  0  0  0  0
  138.9370  137.0750  156.8110 C   0  0  0  0  0  3  0  0  0  0  0  0
  137.7180  136.5490  156.3650 C   0  0  0  0  0  0  0  0  0  0  0  0
  136.9000  135.7420  157.1140 O   0  0  0  0  0  0  0  0  0  0  0  0
  136.6820  136.1090  158.4690 C   0  0  0  0  0  1  0  0  0  0  0  0
  132.9790  134.9910  151.5300 C   0  0  0  0  0  2  0  0  0  0  0  0
  133.1740  135.0650  147.7120 C   0  0  0  0  0  0  0  0  0  0  0  0
  133.0340  135.4620  149.0450 C   0  0  0  0  0  3  0  0  0  0  0  0
  133.1800  134.5440  150.1010 C   0  0  0  0  0  0  0  0  0  0  0  0
  133.4570  133.2040  149.7970 C   0  0  0  0  0  3  0  0  0  0  0  0
  133.5900  132.7910  148.4700 C   0  0  0  0  0  3  0  0  0  0  0  0
  133.4500  133.7190  147.4370 C   0  0  0  0  0  0  0  0  0  0  0  0
  134.0480  136.8960  146.4640 C   0  0  0  0  0  1  0  0  0  0  0  0
  133.0520  135.8940  146.6290 O   0  0  0  0  0  0  0  0  0  0  0  0
  133.5760  133.3130  146.1350 O   0  0  0  0  0  0  0  0  0  0  0  0
  134.2800  133.6360  145.6100 H   0  0  0  0  0  0  0  0  0  0  0  0
  1  2  1  0  0  0  0
  2  5  1  0  0  0  0
  2  3  2  0  0  0  0
  4  1  1  0  0  0  0
  5  6  2  0  0  0  0
  6  7  1  0  0  0  0
  7 12  1  0  0  0  0
  8  9  1  0  0  0  0
  8  7  2  0  0  0  0
  9 10  2  0  0  0  0
 10 11  1  0  0  0  0
 12 11  2  0  0  0  0
 12 13  1  0  0  0  0
 13 14  1  0  0  0  0
 15  1  1  0  0  0  0
 16 17  1  0  0  0  0
 17 18  2  0  0  0  0
 18 15  1  0  0  0  0
 19 18  1  0  0  0  0
 20 19  2  0  0  0  0
 21 16  2  0  0  0  0
 21 20  1  0  0  0  0
 22 23  1  0  0  0  0
 23 16  1  0  0  0  0
 24 21  1  0  0  0  0
 25 24  1  0  0  0  0
M  END
>  <MODEL>
2

>  <REMARK>
 VINA RESULT:    -7.087      1.564      2.791
 INTER + INTRA:         -10.515
 INTER:                  -9.924
 INTRA:                  -0.591
 UNBOUND:                -0.735
  Name = CHEMBL4474043
  9 active torsions:
  status: ('A' for Active; 'I' for Inactive)
    1  A    between atoms: C_1  and  O_2
    2  A    between atoms: O_2  and  C_3
    3  A    between atoms: C_5  and  C_6
    4  A    between atoms: C_6  and  N_7
    5  A    between atoms: C_8  and  C_10
    6  A    between atoms: C_11  and  C_12
    7  A    between atoms: C_17  and  O_18
    8  A    between atoms: O_18  and  C_19
    9  A    between atoms: C_22  and  O_23
                            x       y       z     vdW  Elec       q    Type
                         _______ _______ _______ _____ _____    ______ ____

>  <TORSDO>
F 7

>  <SCORE>
-7.087

>  <RMSD_LB>
1.564

>  <RMSD_UB>
2.791

$$$$
CHEMBL4474043
 OpenBabel10162523533D

 25 26  0  0  0  0  0  0  0  0999 V2000
  142.0190  138.1540  153.9090 N   0  0  0  0  0  0  0  0  0  0  0  0
  141.4140  138.6490  155.0380 C   0  0  0  0  0  0  0  0  0  0  0  0
  141.7350  139.6960  155.5880 O   0  0  0  0  0  0  0  0  0  0  0  0
  141.7100  137.2970  153.5380 H   0  0  0  0  0  0  0  0  0  0  0  0
  140.3100  137.7900  155.5360 C   0  0  0  0  0  3  0  0  0  0  0  0
  139.0660  137.9830  155.0730 C   0  0  0  0  0  3  0  0  0  0  0  0
  137.9290  137.1610  155.5060 C   0  0  0  0  0  0  0  0  0  0  0  0
  137.8530  136.7840  156.8550 C   0  0  0  0  0  3  0  0  0  0  0  0
  136.8050  135.9830  157.3080 C   0  0  0  0  0  3  0  0  0  0  0  0
  135.8250  135.5540  156.4180 C   0  0  0  0  0  3  0  0  0  0  0  0
  135.8890  135.9250  155.0720 C   0  0  0  0  0  3  0  0  0  0  0  0
  136.9370  136.7280  154.6030 C   0  0  0  0  0  0  0  0  0  0  0  0
  137.0790  137.1380  153.3020 O   0  0  0  0  0  0  0  0  0  0  0  0
  136.4840  136.3310  152.2940 C   0  0  0  0  0  1  0  0  0  0  0  0
  143.0980  138.8590  153.2480 C   0  0  0  0  0  2  0  0  0  0  0  0
  146.7020  139.0040  154.5200 C   0  0  0  0  0  0  0  0  0  0  0  0
  145.4180  139.3800  154.1120 C   0  0  0  0  0  3  0  0  0  0  0  0
  144.4620  138.4220  153.7280 C   0  0  0  0  0  0  0  0  0  0  0  0
  144.8190  137.0660  153.7470 C   0  0  0  0  0  3  0  0  0  0  0  0
  146.0990  136.6760  154.1440 C   0  0  0  0  0  3  0  0  0  0  0  0
  147.0310  137.6420  154.5280 C   0  0  0  0  0  0  0  0  0  0  0  0
  147.7870  141.0990  154.2020 C   0  0  0  0  0  1  0  0  0  0  0  0
  147.6870  139.8710  154.9110 O   0  0  0  0  0  0  0  0  0  0  0  0
  148.2890  137.2600  154.9120 O   0  0  0  0  0  0  0  0  0  0  0  0
  148.7120  136.5430  154.4840 H   0  0  0  0  0  0  0  0  0  0  0  0
  1  2  1  0  0  0  0
  2  5  1  0  0  0  0
  2  3  2  0  0  0  0
  4  1  1  0  0  0  0
  6  7  1  0  0  0  0
  6  5  2  0  0  0  0
  7  8  1  0  0  0  0
  8  9  2  0  0  0  0
 10  9  1  0  0  0  0
 11 10  2  0  0  0  0
 12 11  1  0  0  0  0
 12  7  2  0  0  0  0
 13 12  1  0  0  0  0
 14 13  1  0  0  0  0
 15 18  1  0  0  0  0
 15  1  1  0  0  0  0
 16 21  1  0  0  0  0
 16 23  1  0  0  0  0
 17 16  2  0  0  0  0
 18 19  2  0  0  0  0
 18 17  1  0  0  0  0
 19 20  1  0  0  0  0
 20 21  2  0  0  0  0
 21 24  1  0  0  0  0
 22 23  1  0  0  0  0
 25 24  1  0  0  0  0
M  END
>  <MODEL>
3

>  <REMARK>
 VINA RESULT:    -7.024      5.766     10.536
 INTER + INTRA:         -10.428
 INTER:                  -9.780
 INTRA:                  -0.647
 UNBOUND:                -0.735
  Name = CHEMBL4474043
  9 active torsions:
  status: ('A' for Active; 'I' for Inactive)
    1  A    between atoms: C_1  and  O_2
    2  A    between atoms: O_2  and  C_3
    3  A    between atoms: C_5  and  C_6
    4  A    between atoms: C_6  and  N_7
    5  A    between atoms: C_8  and  C_10
    6  A    between atoms: C_11  and  C_12
    7  A    between atoms: C_17  and  O_18
    8  A    between atoms: O_18  and  C_19
    9  A    between atoms: C_22  and  O_23
                            x       y       z     vdW  Elec       q    Type
                         _______ _______ _______ _____ _____    ______ ____

>  <TORSDO>
F 7

>  <SCORE>
-7.024

>  <RMSD_LB>
5.766

>  <RMSD_UB>
10.536

$$$$
CHEMBL4474043
 OpenBabel10162523533D

 25 26  0  0  0  0  0  0  0  0999 V2000
  138.6630  137.0600  150.4600 N   0  0  0  0  0  0  0  0  0  0  0  0
  137.7260  137.6990  149.6860 C   0  0  0  0  0  0  0  0  0  0  0  0
  137.9280  138.7500  149.0880 O   0  0  0  0  0  0  0  0  0  0  0  0
  138.4150  136.2250  150.9180 H   0  0  0  0  0  0  0  0  0  0  0  0
  136.4250  136.9840  149.6280 C   0  0  0  0  0  3  0  0  0  0  0  0
  136.2500  135.8750  150.3610 C   0  0  0  0  0  3  0  0  0  0  0  0
  134.9870  135.1270  150.3690 C   0  0  0  0  0  0  0  0  0  0  0  0
  134.7730  134.1680  149.3680 C   0  0  0  0  0  3  0  0  0  0  0  0
  133.5790  133.4500  149.3200 C   0  0  0  0  0  3  0  0  0  0  0  0
  132.5890  133.6850  150.2700 C   0  0  0  0  0  3  0  0  0  0  0  0
  132.7920  134.6370  151.2730 C   0  0  0  0  0  3  0  0  0  0  0  0
  133.9870  135.3650  151.3330 C   0  0  0  0  0  0  0  0  0  0  0  0
  134.2700  136.3170  152.2800 O   0  0  0  0  0  0  0  0  0  0  0  0
  134.2060  135.9220  153.6430 C   0  0  0  0  0  1  0  0  0  0  0  0
  140.0060  137.5780  150.6190 C   0  0  0  0  0  2  0  0  0  0  0  0
  139.7580  138.5320  154.3140 C   0  0  0  0  0  0  0  0  0  0  0  0
  139.4250  138.2830  152.9790 C   0  0  0  0  0  3  0  0  0  0  0  0
  140.3800  137.7960  152.0660 C   0  0  0  0  0  0  0  0  0  0  0  0
  141.6900  137.5750  152.5130 C   0  0  0  0  0  3  0  0  0  0  0  0
  142.0380  137.8280  153.8410 C   0  0  0  0  0  3  0  0  0  0  0  0
  141.0740  138.3030  154.7320 C   0  0  0  0  0  0  0  0  0  0  0  0
  137.8350  138.1350  155.6620 C   0  0  0  0  0  1  0  0  0  0  0  0
  138.8900  139.0020  155.2640 O   0  0  0  0  0  0  0  0  0  0  0  0
  141.4180  138.5560  156.0340 O   0  0  0  0  0  0  0  0  0  0  0  0
  141.7190  137.8600  156.5830 H   0  0  0  0  0  0  0  0  0  0  0  0
  1 15  1  0  0  0  0
  1  4  1  0  0  0  0
  2  1  1  0  0  0  0
  3  2  2  0  0  0  0
  5  2  1  0  0  0  0
  5  6  2  0  0  0  0
  6  7  1  0  0  0  0
  7 12  1  0  0  0  0
  8  7  2  0  0  0  0
  9  8  1  0  0  0  0
  9 10  2  0  0  0  0
 10 11  1  0  0  0  0
 11 12  2  0  0  0  0
 12 13  1  0  0  0  0
 13 14  1  0  0  0  0
 15 18  1  0  0  0  0
 16 21  1  0  0  0  0
 16 23  1  0  0  0  0
 17 16  2  0  0  0  0
 18 19  2  0  0  0  0
 18 17  1  0  0  0  0
 19 20  1  0  0  0  0
 20 21  2  0  0  0  0
 21 24  1  0  0  0  0
 23 22  1  0  0  0  0
 24 25  1  0  0  0  0
M  END
>  <MODEL>
4

>  <REMARK>
 VINA RESULT:    -6.983      3.104      8.210
 INTER + INTRA:         -10.371
 INTER:                  -9.582
 INTRA:                  -0.789
 UNBOUND:                -0.735
  Name = CHEMBL4474043
  9 active torsions:
  status: ('A' for Active; 'I' for Inactive)
    1  A    between atoms: C_1  and  O_2
    2  A    between atoms: O_2  and  C_3
    3  A    between atoms: C_5  and  C_6
    4  A    between atoms: C_6  and  N_7
    5  A    between atoms: C_8  and  C_10
    6  A    between atoms: C_11  and  C_12
    7  A    between atoms: C_17  and  O_18
    8  A    between atoms: O_18  and  C_19
    9  A    between atoms: C_22  and  O_23
                            x       y       z     vdW  Elec       q    Type
                         _______ _______ _______ _____ _____    ______ ____

>  <TORSDO>
F 7

>  <SCORE>
-6.983

>  <RMSD_LB>
3.104

>  <RMSD_UB>
8.210

$$$$
CHEMBL4474043
 OpenBabel10162523533D

 25 26  0  0  0  0  0  0  0  0999 V2000
  143.4180  137.9210  151.0870 N   0  0  0  0  0  0  0  0  0  0  0  0
  144.6980  137.4420  150.9540 C   0  0  0  0  0  0  0  0  0  0  0  0
  144.9720  136.2760  150.6960 O   0  0  0  0  0  0  0  0  0  0  0  0
  143.2840  138.8700  151.3090 H   0  0  0  0  0  0  0  0  0  0  0  0
  145.7380  138.4850  151.1440 C   0  0  0  0  0  3  0  0  0  0  0  0
  146.0100  138.9260  152.3820 C   0  0  0  0  0  3  0  0  0  0  0  0
  147.0370  139.9400  152.6480 C   0  0  0  0  0  0  0  0  0  0  0  0
  147.5570  140.6640  151.5640 C   0  0  0  0  0  3  0  0  0  0  0  0
  148.5520  141.6200  151.7630 C   0  0  0  0  0  3  0  0  0  0  0  0
  149.0350  141.8610  153.0460 C   0  0  0  0  0  3  0  0  0  0  0  0
  148.5230  141.1480  154.1340 C   0  0  0  0  0  3  0  0  0  0  0  0
  147.5240  140.1840  153.9470 C   0  0  0  0  0  0  0  0  0  0  0  0
  146.9670  139.4380  154.9550 O   0  0  0  0  0  0  0  0  0  0  0  0
  147.8280  138.5640  155.6730 C   0  0  0  0  0  1  0  0  0  0  0  0
  142.2600  137.0700  150.9080 C   0  0  0  0  0  2  0  0  0  0  0  0
  140.1740  138.3720  153.8360 C   0  0  0  0  0  0  0  0  0  0  0  0
  141.2590  137.9910  153.0410 C   0  0  0  0  0  3  0  0  0  0  0  0
  141.0740  137.5170  151.7290 C   0  0  0  0  0  0  0  0  0  0  0  0
  139.7690  137.4160  151.2260 C   0  0  0  0  0  3  0  0  0  0  0  0
  138.6760  137.7840  152.0110 C   0  0  0  0  0  3  0  0  0  0  0  0
  138.8820  138.2590  153.3080 C   0  0  0  0  0  0  0  0  0  0  0  0
  141.1090  138.1280  156.0130 C   0  0  0  0  0  1  0  0  0  0  0  0
  140.2680  138.8450  155.1180 O   0  0  0  0  0  0  0  0  0  0  0  0
  137.8080  138.6150  154.0810 O   0  0  0  0  0  0  0  0  0  0  0  0
  137.9010  139.2810  154.7320 H   0  0  0  0  0  0  0  0  0  0  0  0
  1  4  1  0  0  0  0
  2  1  1  0  0  0  0
  2  5  1  0  0  0  0
  3  2  2  0  0  0  0
  5  6  2  0  0  0  0
  6  7  1  0  0  0  0
  7 12  1  0  0  0  0
  8  9  1  0  0  0  0
  8  7  2  0  0  0  0
  9 10  2  0  0  0  0
 10 11  1  0  0  0  0
 12 11  2  0  0  0  0
 12 13  1  0  0  0  0
 13 14  1  0  0  0  0
 15  1  1  0  0  0  0
 15 18  1  0  0  0  0
 16 23  1  0  0  0  0
 17 16  2  0  0  0  0
 18 17  1  0  0  0  0
 19 18  2  0  0  0  0
 19 20  1  0  0  0  0
 20 21  2  0  0  0  0
 21 16  1  0  0  0  0
 21 24  1  0  0  0  0
 23 22  1  0  0  0  0
 24 25  1  0  0  0  0
M  END
>  <MODEL>
5

>  <REMARK>
 VINA RESULT:    -6.944      7.148     10.593
 INTER + INTRA:         -10.317
 INTER:                  -9.625
 INTRA:                  -0.692
 UNBOUND:                -0.735
  Name = CHEMBL4474043
  9 active torsions:
  status: ('A' for Active; 'I' for Inactive)
    1  A    between atoms: C_1  and  O_2
    2  A    between atoms: O_2  and  C_3
    3  A    between atoms: C_5  and  C_6
    4  A    between atoms: C_6  and  N_7
    5  A    between atoms: C_8  and  C_10
    6  A    between atoms: C_11  and  C_12
    7  A    between atoms: C_17  and  O_18
    8  A    between atoms: O_18  and  C_19
    9  A    between atoms: C_22  and  O_23
                            x       y       z     vdW  Elec       q    Type
                         _______ _______ _______ _____ _____    ______ ____

>  <TORSDO>
F 7

>  <SCORE>
-6.944

>  <RMSD_LB>
7.148

>  <RMSD_UB>
10.593

$$$$
CHEMBL4474043
 OpenBabel10162523533D

 25 26  0  0  0  0  0  0  0  0999 V2000
  134.4950  135.5050  152.3760 N   0  0  0  0  0  0  0  0  0  0  0  0
  134.7180  135.0040  153.6340 C   0  0  0  0  0  0  0  0  0  0  0  0
  133.9080  134.3310  154.2600 O   0  0  0  0  0  0  0  0  0  0  0  0
  135.1940  136.0490  151.9470 H   0  0  0  0  0  0  0  0  0  0  0  0
  136.0580  135.3480  154.1740 C   0  0  0  0  0  3  0  0  0  0  0  0
  136.3630  136.6330  154.4110 C   0  0  0  0  0  3  0  0  0  0  0  0
  137.6590  137.0460  154.9610 C   0  0  0  0  0  0  0  0  0  0  0  0
  137.9330  136.7630  156.3080 C   0  0  0  0  0  3  0  0  0  0  0  0
  139.1410  137.1570  156.8820 C   0  0  0  0  0  3  0  0  0  0  0  0
  140.0840  137.8360  156.1160 C   0  0  0  0  0  3  0  0  0  0  0  0
  139.8230  138.1210  154.7730 C   0  0  0  0  0  3  0  0  0  0  0  0
  138.6140  137.7320  154.1840 C   0  0  0  0  0  0  0  0  0  0  0  0
  138.2740  137.9710  152.8770 O   0  0  0  0  0  0  0  0  0  0  0  0
  139.3030  137.8590  151.9030 C   0  0  0  0  0  1  0  0  0  0  0  0
  133.2600  135.2550  151.6600 C   0  0  0  0  0  2  0  0  0  0  0  0
  133.5580  134.8820  147.8660 C   0  0  0  0  0  0  0  0  0  0  0  0
  133.3920  135.4340  149.1400 C   0  0  0  0  0  3  0  0  0  0  0  0
  133.4880  134.6420  150.2990 C   0  0  0  0  0  0  0  0  0  0  0  0
  133.7410  133.2700  150.1600 C   0  0  0  0  0  3  0  0  0  0  0  0
  133.9000  132.7030  148.8940 C   0  0  0  0  0  3  0  0  0  0  0  0
  133.8090  133.5090  147.7570 C   0  0  0  0  0  0  0  0  0  0  0  0
  134.5350  136.4990  146.4170 C   0  0  0  0  0  1  0  0  0  0  0  0
  133.4830  135.5830  146.6920 O   0  0  0  0  0  0  0  0  0  0  0  0
  133.9590  132.9510  146.5150 O   0  0  0  0  0  0  0  0  0  0  0  0
  134.0420  132.0240  146.4250 H   0  0  0  0  0  0  0  0  0  0  0  0
  1  2  1  0  0  0  0
  2  5  1  0  0  0  0
  2  3  2  0  0  0  0
  4  1  1  0  0  0  0
  5  6  2  0  0  0  0
  6  7  1  0  0  0  0
  7  8  1  0  0  0  0
  8  9  2  0  0  0  0
 10  9  1  0  0  0  0
 11 10  2  0  0  0  0
 12 11  1  0  0  0  0
 12  7  2  0  0  0  0
 13 12  1  0  0  0  0
 14 13  1  0  0  0  0
 15  1  1  0  0  0  0
 16 17  1  0  0  0  0
 17 18  2  0  0  0  0
 18 15  1  0  0  0  0
 19 18  1  0  0  0  0
 20 19  2  0  0  0  0
 21 16  2  0  0  0  0
 21 20  1  0  0  0  0
 22 23  1  0  0  0  0
 23 16  1  0  0  0  0
 24 21  1  0  0  0  0
 25 24  1  0  0  0  0
M  END
>  <MODEL>
6

>  <REMARK>
 VINA RESULT:    -6.889      1.614      2.520
 INTER + INTRA:         -10.242
 INTER:                  -9.592
 INTRA:                  -0.650
 UNBOUND:                -0.735
  Name = CHEMBL4474043
  9 active torsions:
  status: ('A' for Active; 'I' for Inactive)
    1  A    between atoms: C_1  and  O_2
    2  A    between atoms: O_2  and  C_3
    3  A    between atoms: C_5  and  C_6
    4  A    between atoms: C_6  and  N_7
    5  A    between atoms: C_8  and  C_10
    6  A    between atoms: C_11  and  C_12
    7  A    between atoms: C_17  and  O_18
    8  A    between atoms: O_18  and  C_19
    9  A    between atoms: C_22  and  O_23
                            x       y       z     vdW  Elec       q    Type
                         _______ _______ _______ _____ _____    ______ ____

>  <TORSDO>
F 7

>  <SCORE>
-6.889

>  <RMSD_LB>
1.614

>  <RMSD_UB>
2.520

$$$$
CHEMBL4474043
 OpenBabel10162523533D

 25 26  0  0  0  0  0  0  0  0999 V2000
  138.4870  137.8080  153.2530 N   0  0  0  0  0  0  0  0  0  0  0  0
  138.4490  138.2640  154.5480 C   0  0  0  0  0  0  0  0  0  0  0  0
  139.0110  139.2820  154.9350 O   0  0  0  0  0  0  0  0  0  0  0  0
  138.0180  136.9720  153.0280 H   0  0  0  0  0  0  0  0  0  0  0  0
  137.6410  137.4050  155.4500 C   0  0  0  0  0  3  0  0  0  0  0  0
  137.5630  137.7100  156.7540 C   0  0  0  0  0  3  0  0  0  0  0  0
  136.7700  136.9180  157.7020 C   0  0  0  0  0  0  0  0  0  0  0  0
  136.2140  135.7080  157.2590 C   0  0  0  0  0  3  0  0  0  0  0  0
  135.4320  134.9330  158.1140 C   0  0  0  0  0  3  0  0  0  0  0  0
  135.2000  135.3600  159.4190 C   0  0  0  0  0  3  0  0  0  0  0  0
  135.7500  136.5620  159.8720 C   0  0  0  0  0  3  0  0  0  0  0  0
  136.5370  137.3500  159.0230 C   0  0  0  0  0  0  0  0  0  0  0  0
  137.1140  138.5420  159.3820 O   0  0  0  0  0  0  0  0  0  0  0  0
  136.6120  139.1860  160.5450 C   0  0  0  0  0  1  0  0  0  0  0  0
  139.1950  138.5210  152.2110 C   0  0  0  0  0  2  0  0  0  0  0  0
  142.8780  137.6350  152.7360 C   0  0  0  0  0  0  0  0  0  0  0  0
  141.5760  138.0970  152.9530 C   0  0  0  0  0  3  0  0  0  0  0  0
  140.5820  137.9730  151.9660 C   0  0  0  0  0  0  0  0  0  0  0  0
  140.9180  137.3850  150.7390 C   0  0  0  0  0  3  0  0  0  0  0  0
  142.2150  136.9270  150.5040 C   0  0  0  0  0  3  0  0  0  0  0  0
  143.1860  137.0530  151.5000 C   0  0  0  0  0  0  0  0  0  0  0  0
  144.3270  139.0150  154.0270 C   0  0  0  0  0  1  0  0  0  0  0  0
  143.9010  137.7140  153.6430 O   0  0  0  0  0  0  0  0  0  0  0  0
  144.4610  136.6080  151.2670 O   0  0  0  0  0  0  0  0  0  0  0  0
  144.6280  135.6910  151.1820 H   0  0  0  0  0  0  0  0  0  0  0  0
  1  2  1  0  0  0  0
  2  3  2  0  0  0  0
  2  5  1  0  0  0  0
  4  1  1  0  0  0  0
  5  6  2  0  0  0  0
  6  7  1  0  0  0  0
  7 12  1  0  0  0  0
  8  7  2  0  0  0  0
  8  9  1  0  0  0  0
  9 10  2  0  0  0  0
 10 11  1  0  0  0  0
 12 13  1  0  0  0  0
 12 11  2  0  0  0  0
 13 14  1  0  0  0  0
 15  1  1  0  0  0  0
 16 17  1  0  0  0  0
 16 23  1  0  0  0  0
 18 15  1  0  0  0  0
 18 17  2  0  0  0  0
 19 18  1  0  0  0  0
 20 19  2  0  0  0  0
 20 21  1  0  0  0  0
 21 16  2  0  0  0  0
 23 22  1  0  0  0  0
 24 21  1  0  0  0  0
 25 24  1  0  0  0  0
M  END
>  <MODEL>
7

>  <REMARK>
 VINA RESULT:    -6.825      6.046      7.795
 INTER + INTRA:         -10.153
 INTER:                  -9.594
 INTRA:                  -0.559
 UNBOUND:                -0.735
  Name = CHEMBL4474043
  9 active torsions:
  status: ('A' for Active; 'I' for Inactive)
    1  A    between atoms: C_1  and  O_2
    2  A    between atoms: O_2  and  C_3
    3  A    between atoms: C_5  and  C_6
    4  A    between atoms: C_6  and  N_7
    5  A    between atoms: C_8  and  C_10
    6  A    between atoms: C_11  and  C_12
    7  A    between atoms: C_17  and  O_18
    8  A    between atoms: O_18  and  C_19
    9  A    between atoms: C_22  and  O_23
                            x       y       z     vdW  Elec       q    Type
                         _______ _______ _______ _____ _____    ______ ____

>  <TORSDO>
F 7

>  <SCORE>
-6.825

>  <RMSD_LB>
6.046

>  <RMSD_UB>
7.795

$$$$
CHEMBL4474043
 OpenBabel10162523533D

 25 26  0  0  0  0  0  0  0  0999 V2000
  138.6260  138.2340  152.9910 N   0  0  0  0  0  0  0  0  0  0  0  0
  138.8150  138.7060  154.2660 C   0  0  0  0  0  0  0  0  0  0  0  0
  139.5540  139.6410  154.5510 O   0  0  0  0  0  0  0  0  0  0  0  0
  138.0240  137.4680  152.8480 H   0  0  0  0  0  0  0  0  0  0  0  0
  138.0210  137.9750  155.2860 C   0  0  0  0  0  3  0  0  0  0  0  0
  137.2010  136.9860  154.8980 C   0  0  0  0  0  3  0  0  0  0  0  0
  136.4000  136.2080  155.8510 C   0  0  0  0  0  0  0  0  0  0  0  0
  136.8030  136.1800  157.1950 C   0  0  0  0  0  3  0  0  0  0  0  0
  136.0890  135.4350  158.1320 C   0  0  0  0  0  3  0  0  0  0  0  0
  134.9670  134.7130  157.7360 C   0  0  0  0  0  3  0  0  0  0  0  0
  134.5540  134.7360  156.4000 C   0  0  0  0  0  3  0  0  0  0  0  0
  135.2630  135.4800  155.4480 C   0  0  0  0  0  0  0  0  0  0  0  0
  134.9310  135.5580  154.1200 O   0  0  0  0  0  0  0  0  0  0  0  0
  135.2610  134.4460  153.2980 C   0  0  0  0  0  1  0  0  0  0  0  0
  139.2850  138.8320  151.8480 C   0  0  0  0  0  2  0  0  0  0  0  0
  142.7830  137.3000  151.6510 C   0  0  0  0  0  0  0  0  0  0  0  0
  141.6640  138.0080  152.0990 C   0  0  0  0  0  3  0  0  0  0  0  0
  140.4650  138.0220  151.3640 C   0  0  0  0  0  0  0  0  0  0  0  0
  140.4070  137.3200  150.1520 C   0  0  0  0  0  3  0  0  0  0  0  0
  141.5190  136.6160  149.6870 C   0  0  0  0  0  3  0  0  0  0  0  0
  142.6970  136.6080  150.4370 C   0  0  0  0  0  0  0  0  0  0  0  0
  144.4740  138.4350  152.8850 C   0  0  0  0  0  1  0  0  0  0  0  0
  143.9830  137.2320  152.3070 O   0  0  0  0  0  0  0  0  0  0  0  0
  143.7910  135.9210  149.9780 O   0  0  0  0  0  0  0  0  0  0  0  0
  143.7040  135.3320  149.2560 H   0  0  0  0  0  0  0  0  0  0  0  0
  1  2  1  0  0  0  0
  2  3  2  0  0  0  0
  2  5  1  0  0  0  0
  4  1  1  0  0  0  0
  6  5  2  0  0  0  0
  6  7  1  0  0  0  0
  7  8  1  0  0  0  0
  8  9  2  0  0  0  0
 10  9  1  0  0  0  0
 11 10  2  0  0  0  0
 12  7  2  0  0  0  0
 12 11  1  0  0  0  0
 13 12  1  0  0  0  0
 14 13  1  0  0  0  0
 15  1  1  0  0  0  0
 16 17  1  0  0  0  0
 16 23  1  0  0  0  0
 18 15  1  0  0  0  0
 18 17  2  0  0  0  0
 19 18  1  0  0  0  0
 20 19  2  0  0  0  0
 20 21  1  0  0  0  0
 21 16  2  0  0  0  0
 23 22  1  0  0  0  0
 24 21  1  0  0  0  0
 25 24  1  0  0  0  0
M  END
>  <MODEL>
8

>  <REMARK>
 VINA RESULT:    -6.762      4.278      7.413
 INTER + INTRA:         -10.067
 INTER:                  -9.394
 INTRA:                  -0.673
 UNBOUND:                -0.735
  Name = CHEMBL4474043
  9 active torsions:
  status: ('A' for Active; 'I' for Inactive)
    1  A    between atoms: C_1  and  O_2
    2  A    between atoms: O_2  and  C_3
    3  A    between atoms: C_5  and  C_6
    4  A    between atoms: C_6  and  N_7
    5  A    between atoms: C_8  and  C_10
    6  A    between atoms: C_11  and  C_12
    7  A    between atoms: C_17  and  O_18
    8  A    between atoms: O_18  and  C_19
    9  A    between atoms: C_22  and  O_23
                            x       y       z     vdW  Elec       q    Type
                         _______ _______ _______ _____ _____    ______ ____

>  <TORSDO>
F 7

>  <SCORE>
-6.762

>  <RMSD_LB>
4.278

>  <RMSD_UB>
7.413

$$$$
CHEMBL4474043
 OpenBabel10162523533D

 25 26  0  0  0  0  0  0  0  0999 V2000
  138.2140  137.7270  151.2450 N   0  0  0  0  0  0  0  0  0  0  0  0
  138.4990  136.7670  150.3070 C   0  0  0  0  0  0  0  0  0  0  0  0
  139.5840  136.6520  149.7480 O   0  0  0  0  0  0  0  0  0  0  0  0
  137.3110  137.7600  151.6370 H   0  0  0  0  0  0  0  0  0  0  0  0
  137.3580  135.8560  150.0330 C   0  0  0  0  0  3  0  0  0  0  0  0
  136.1570  136.1280  150.5630 C   0  0  0  0  0  3  0  0  0  0  0  0
  134.9800  135.2840  150.3210 C   0  0  0  0  0  0  0  0  0  0  0  0
  134.8870  134.0590  150.9970 C   0  0  0  0  0  3  0  0  0  0  0  0
  133.8010  133.2110  150.7810 C   0  0  0  0  0  3  0  0  0  0  0  0
  132.7990  133.5820  149.8890 C   0  0  0  0  0  3  0  0  0  0  0  0
  132.8800  134.8020  149.2110 C   0  0  0  0  0  3  0  0  0  0  0  0
  133.9660  135.6620  149.4190 C   0  0  0  0  0  0  0  0  0  0  0  0
  134.1270  136.8740  148.7960 O   0  0  0  0  0  0  0  0  0  0  0  0
  133.9870  136.9060  147.3830 C   0  0  0  0  0  1  0  0  0  0  0  0
  139.2030  138.6940  151.6760 C   0  0  0  0  0  2  0  0  0  0  0  0
  139.4050  138.1610  155.4580 C   0  0  0  0  0  0  0  0  0  0  0  0
  138.9090  138.3970  154.1720 C   0  0  0  0  0  3  0  0  0  0  0  0
  139.7570  138.3910  153.0490 C   0  0  0  0  0  0  0  0  0  0  0  0
  141.1260  138.1560  153.2370 C   0  0  0  0  0  3  0  0  0  0  0  0
  141.6360  137.9270  154.5160 C   0  0  0  0  0  3  0  0  0  0  0  0
  140.7770  137.9300  155.6160 C   0  0  0  0  0  0  0  0  0  0  0  0
  137.8460  136.9960  156.8300 C   0  0  0  0  0  1  0  0  0  0  0  0
  138.6490  138.1470  156.5990 O   0  0  0  0  0  0  0  0  0  0  0  0
  141.2790  137.7110  156.8720 O   0  0  0  0  0  0  0  0  0  0  0  0
  141.8270  136.9690  157.0340 H   0  0  0  0  0  0  0  0  0  0  0  0
  1  4  1  0  0  0  0
  1 15  1  0  0  0  0
  2  1  1  0  0  0  0
  3  2  2  0  0  0  0
  5  2  1  0  0  0  0
  5  6  2  0  0  0  0
  7  6  1  0  0  0  0
  7  8  1  0  0  0  0
  9  8  2  0  0  0  0
 10  9  1  0  0  0  0
 11 12  1  0  0  0  0
 11 10  2  0  0  0  0
 12  7  2  0  0  0  0
 13 12  1  0  0  0  0
 14 13  1  0  0  0  0
 15 18  1  0  0  0  0
 16 21  1  0  0  0  0
 16 23  1  0  0  0  0
 17 16  2  0  0  0  0
 18 19  2  0  0  0  0
 18 17  1  0  0  0  0
 19 20  1  0  0  0  0
 20 21  2  0  0  0  0
 21 24  1  0  0  0  0
 23 22  1  0  0  0  0
 24 25  1  0  0  0  0
M  END
>  <MODEL>
9

>  <REMARK>
 VINA RESULT:    -6.714      2.830      8.533
 INTER + INTRA:         -10.000
 INTER:                  -9.265
 INTRA:                  -0.735
 UNBOUND:                -0.735
  Name = CHEMBL4474043
  9 active torsions:
  status: ('A' for Active; 'I' for Inactive)
    1  A    between atoms: C_1  and  O_2
    2  A    between atoms: O_2  and  C_3
    3  A    between atoms: C_5  and  C_6
    4  A    between atoms: C_6  and  N_7
    5  A    between atoms: C_8  and  C_10
    6  A    between atoms: C_11  and  C_12
    7  A    between atoms: C_17  and  O_18
    8  A    between atoms: O_18  and  C_19
    9  A    between atoms: C_22  and  O_23
                            x       y       z     vdW  Elec       q    Type
                         _______ _______ _______ _____ _____    ______ ____

>  <TORSDO>
F 7

>  <SCORE>
-6.714

>  <RMSD_LB>
2.830

>  <RMSD_UB>
8.533

$$$$
