CHEMBL254713
 OpenBabel10162523403D

 26 27  0  0  0  0  0  0  0  0999 V2000
  138.1760  137.6000  154.6180 N   0  0  0  0  0  0  0  0  0  0  0  0
  138.9880  138.6270  154.1930 C   0  0  0  0  0  0  0  0  0  0  0  0
  139.6500  139.3250  154.9550 O   0  0  0  0  0  0  0  0  0  0  0  0
  137.7110  137.0410  153.9550 H   0  0  0  0  0  0  0  0  0  0  0  0
  137.9990  137.3350  156.0270 C   0  0  0  0  0  2  0  0  0  0  0  0
  135.4130  135.2200  157.8730 C   0  0  0  0  0  0  0  0  0  0  0  0
  136.5090  136.0480  157.6010 C   0  0  0  0  0  3  0  0  0  0  0  0
  136.8360  136.4100  156.2820 C   0  0  0  0  0  0  0  0  0  0  0  0
  136.0650  135.9030  155.2280 C   0  0  0  0  0  3  0  0  0  0  0  0
  134.9750  135.0680  155.4860 C   0  0  0  0  0  3  0  0  0  0  0  0
  134.6550  134.7330  156.8010 C   0  0  0  0  0  0  0  0  0  0  0  0
  134.2990  135.8060  159.8940 C   0  0  0  0  0  1  0  0  0  0  0  0
  135.0090  134.8430  159.1280 O   0  0  0  0  0  0  0  0  0  0  0  0
  133.5820  133.9210  157.0560 O   0  0  0  0  0  0  0  0  0  0  0  0
  133.7060  132.9980  157.1570 H   0  0  0  0  0  0  0  0  0  0  0  0
  139.0490  138.7990  152.6870 C   0  0  0  0  0  2  0  0  0  0  0  0
  138.9150  137.4550  151.9720 C   0  0  0  0  0  2  0  0  0  0  0  0
  138.0680  137.5590  150.7020 C   0  0  0  0  0  2  0  0  0  0  0  0
  137.0330  136.4670  150.6240 C   0  0  0  0  0  0  0  0  0  0  0  0
  136.2990  136.1020  151.7530 C   0  0  0  0  0  3  0  0  0  0  0  0
  135.3610  135.0710  151.6770 C   0  0  0  0  0  3  0  0  0  0  0  0
  135.1280  134.3900  150.4710 C   0  0  0  0  0  0  0  0  0  0  0  0
  134.1300  133.2670  150.4490 C   0  0  0  0  0  1  0  0  0  0  0  0
  135.8390  134.7720  149.3180 C   0  0  0  0  0  0  0  0  0  0  0  0
  135.6420  134.1270  147.9740 C   0  0  0  0  0  1  0  0  0  0  0  0
  136.7840  135.8090  149.4120 C   0  0  0  0  0  3  0  0  0  0  0  0
  1  5  1  0  0  0  0
  2  1  1  0  0  0  0
  2  3  2  0  0  0  0
  4  1  1  0  0  0  0
  5  8  1  0  0  0  0
  6 13  1  0  0  0  0
  7  6  1  0  0  0  0
  8  7  2  0  0  0  0
  9 10  2  0  0  0  0
  9  8  1  0  0  0  0
 10 11  1  0  0  0  0
 11 14  1  0  0  0  0
 11  6  2  0  0  0  0
 13 12  1  0  0  0  0
 14 15  1  0  0  0  0
 16  2  1  0  0  0  0
 17 16  1  0  0  0  0
 18 17  1  0  0  0  0
 19 18  1  0  0  0  0
 19 20  1  0  0  0  0
 21 20  2  0  0  0  0
 22 21  1  0  0  0  0
 23 22  1  0  0  0  0
 24 26  1  0  0  0  0
 24 22  2  0  0  0  0
 25 24  1  0  0  0  0
 26 19  2  0  0  0  0
M  END
>  <MODEL>
1

>  <REMARK>
 VINA RESULT:    -7.368      0.000      0.000
 INTER + INTRA:         -11.478
 INTER:                 -10.351
 INTRA:                  -1.127
 UNBOUND:                -0.879
  Name = CHEMBL254713
  11 active torsions:
  status: ('A' for Active; 'I' for Inactive)
    1  A    between atoms: C_1  and  O_2
    2  A    between atoms: O_2  and  C_3
    3  A    between atoms: C_5  and  C_6
    4  A    between atoms: C_6  and  N_7
    5  A    between atoms: C_8  and  C_10
    6  A    between atoms: C_10  and  C_11
    7  A    between atoms: C_11  and  C_12
    8  A    between atoms: C_12  and  C_13
    9  A    between atoms: C_16  and  C_17
   10  A    between atoms: C_18  and  C_19
   11  A    between atoms: C_23  and  O_24
                            x       y       z     vdW  Elec       q    Type
                         _______ _______ _______ _____ _____    ______ ____

>  <TORSDO>
F 8

>  <SCORE>
-7.368

>  <RMSD_LB>
0.000

>  <RMSD_UB>
0.000

$$$$
CHEMBL254713
 OpenBabel10162523403D

 26 27  0  0  0  0  0  0  0  0999 V2000
  145.3060  136.5280  150.6900 N   0  0  0  0  0  0  0  0  0  0  0  0
  145.6030  136.5990  149.3480 C   0  0  0  0  0  0  0  0  0  0  0  0
  146.6280  136.1360  148.8570 O   0  0  0  0  0  0  0  0  0  0  0  0
  144.4430  136.8710  151.0170 H   0  0  0  0  0  0  0  0  0  0  0  0
  146.2490  135.9570  151.6240 C   0  0  0  0  0  2  0  0  0  0  0  0
  146.4540  138.4960  154.4660 C   0  0  0  0  0  0  0  0  0  0  0  0
  145.9640  137.5570  153.5500 C   0  0  0  0  0  3  0  0  0  0  0  0
  146.8000  136.9940  152.5700 C   0  0  0  0  0  0  0  0  0  0  0  0
  148.1360  137.4080  152.4980 C   0  0  0  0  0  3  0  0  0  0  0  0
  148.6350  138.3510  153.4000 C   0  0  0  0  0  3  0  0  0  0  0  0
  147.7960  138.8880  154.3760 C   0  0  0  0  0  0  0  0  0  0  0  0
  144.3940  139.4790  155.1450 C   0  0  0  0  0  1  0  0  0  0  0  0
  145.7170  139.0720  155.4680 O   0  0  0  0  0  0  0  0  0  0  0  0
  148.2850  139.8060  155.2650 O   0  0  0  0  0  0  0  0  0  0  0  0
  148.8020  139.5240  155.9940 H   0  0  0  0  0  0  0  0  0  0  0  0
  144.5280  137.2510  148.5000 C   0  0  0  0  0  2  0  0  0  0  0  0
  144.7370  138.7620  148.4080 C   0  0  0  0  0  2  0  0  0  0  0  0
  146.1670  139.1700  148.7660 C   0  0  0  0  0  2  0  0  0  0  0  0
  146.2220  139.9680  150.0430 C   0  0  0  0  0  0  0  0  0  0  0  0
  145.0800  140.1340  150.8270 C   0  0  0  0  0  3  0  0  0  0  0  0
  145.1360  140.8970  151.9940 C   0  0  0  0  0  3  0  0  0  0  0  0
  146.3330  141.5020  152.4090 C   0  0  0  0  0  0  0  0  0  0  0  0
  146.3320  142.3390  153.6570 C   0  0  0  0  0  1  0  0  0  0  0  0
  147.4990  141.3150  151.6430 C   0  0  0  0  0  0  0  0  0  0  0  0
  148.8350  141.8940  152.0170 C   0  0  0  0  0  1  0  0  0  0  0  0
  147.4260  140.5470  150.4670 C   0  0  0  0  0  3  0  0  0  0  0  0
  1  4  1  0  0  0  0
  1  5  1  0  0  0  0
  2  1  1  0  0  0  0
  3  2  2  0  0  0  0
  5  8  1  0  0  0  0
  6 13  1  0  0  0  0
  7  6  2  0  0  0  0
  8  7  1  0  0  0  0
  9  8  2  0  0  0  0
  9 10  1  0  0  0  0
 10 11  2  0  0  0  0
 11  6  1  0  0  0  0
 11 14  1  0  0  0  0
 12 13  1  0  0  0  0
 14 15  1  0  0  0  0
 16  2  1  0  0  0  0
 17 16  1  0  0  0  0
 17 18  1  0  0  0  0
 18 19  1  0  0  0  0
 19 26  2  0  0  0  0
 19 20  1  0  0  0  0
 20 21  2  0  0  0  0
 21 22  1  0  0  0  0
 22 23  1  0  0  0  0
 24 25  1  0  0  0  0
 24 22  2  0  0  0  0
 26 24  1  0  0  0  0
M  END
>  <MODEL>
2

>  <REMARK>
 VINA RESULT:    -7.356      9.206     11.664
 INTER + INTRA:         -11.459
 INTER:                  -9.031
 INTRA:                  -2.428
 UNBOUND:                -0.879
  Name = CHEMBL254713
  11 active torsions:
  status: ('A' for Active; 'I' for Inactive)
    1  A    between atoms: C_1  and  O_2
    2  A    between atoms: O_2  and  C_3
    3  A    between atoms: C_5  and  C_6
    4  A    between atoms: C_6  and  N_7
    5  A    between atoms: C_8  and  C_10
    6  A    between atoms: C_10  and  C_11
    7  A    between atoms: C_11  and  C_12
    8  A    between atoms: C_12  and  C_13
    9  A    between atoms: C_16  and  C_17
   10  A    between atoms: C_18  and  C_19
   11  A    between atoms: C_23  and  O_24
                            x       y       z     vdW  Elec       q    Type
                         _______ _______ _______ _____ _____    ______ ____

>  <TORSDO>
F 8

>  <SCORE>
-7.356

>  <RMSD_LB>
9.206

>  <RMSD_UB>
11.664

$$$$
CHEMBL254713
 OpenBabel10162523403D

 26 27  0  0  0  0  0  0  0  0999 V2000
  146.2160  138.1990  149.6650 N   0  0  0  0  0  0  0  0  0  0  0  0
  145.7350  137.5500  148.5510 C   0  0  0  0  0  0  0  0  0  0  0  0
  145.7250  138.0480  147.4300 O   0  0  0  0  0  0  0  0  0  0  0  0
  146.2470  137.7280  150.5280 H   0  0  0  0  0  0  0  0  0  0  0  0
  146.6730  139.5680  149.5800 C   0  0  0  0  0  2  0  0  0  0  0  0
  146.4930  140.2940  153.3230 C   0  0  0  0  0  0  0  0  0  0  0  0
  146.6350  139.6270  152.1000 C   0  0  0  0  0  3  0  0  0  0  0  0
  146.4740  140.3070  150.8800 C   0  0  0  0  0  0  0  0  0  0  0  0
  146.1360  141.6660  150.8990 C   0  0  0  0  0  3  0  0  0  0  0  0
  145.9820  142.3400  152.1130 C   0  0  0  0  0  3  0  0  0  0  0  0
  146.1610  141.6550  153.3140 C   0  0  0  0  0  0  0  0  0  0  0  0
  147.9220  139.1200  154.8230 C   0  0  0  0  0  1  0  0  0  0  0  0
  146.6600  139.7150  154.5540 O   0  0  0  0  0  0  0  0  0  0  0  0
  146.0170  142.3160  154.5040 O   0  0  0  0  0  0  0  0  0  0  0  0
  145.1820  142.6590  154.7530 H   0  0  0  0  0  0  0  0  0  0  0  0
  145.2650  136.1300  148.8050 C   0  0  0  0  0  2  0  0  0  0  0  0
  144.5040  136.0280  150.1250 C   0  0  0  0  0  2  0  0  0  0  0  0
  143.0800  136.5770  150.0150 C   0  0  0  0  0  2  0  0  0  0  0  0
  142.5740  137.1010  151.3340 C   0  0  0  0  0  0  0  0  0  0  0  0
  143.4610  137.3770  152.3760 C   0  0  0  0  0  3  0  0  0  0  0  0
  142.9800  137.8370  153.6020 C   0  0  0  0  0  3  0  0  0  0  0  0
  141.6070  138.0410  153.8130 C   0  0  0  0  0  0  0  0  0  0  0  0
  141.1380  138.5090  155.1620 C   0  0  0  0  0  1  0  0  0  0  0  0
  140.7070  137.7980  152.7590 C   0  0  0  0  0  0  0  0  0  0  0  0
  139.2230  138.0150  152.8730 C   0  0  0  0  0  1  0  0  0  0  0  0
  141.2060  137.3300  151.5310 C   0  0  0  0  0  3  0  0  0  0  0  0
  1  4  1  0  0  0  0
  2 16  1  0  0  0  0
  2  1  1  0  0  0  0
  3  2  2  0  0  0  0
  5  1  1  0  0  0  0
  5  8  1  0  0  0  0
  6 13  1  0  0  0  0
  7  6  2  0  0  0  0
  8  9  2  0  0  0  0
  8  7  1  0  0  0  0
  9 10  1  0  0  0  0
 10 11  2  0  0  0  0
 11  6  1  0  0  0  0
 11 14  1  0  0  0  0
 13 12  1  0  0  0  0
 14 15  1  0  0  0  0
 16 17  1  0  0  0  0
 18 17  1  0  0  0  0
 18 19  1  0  0  0  0
 19 26  2  0  0  0  0
 19 20  1  0  0  0  0
 20 21  2  0  0  0  0
 21 22  1  0  0  0  0
 22 23  1  0  0  0  0
 24 25  1  0  0  0  0
 24 22  2  0  0  0  0
 26 24  1  0  0  0  0
M  END
>  <MODEL>
3

>  <REMARK>
 VINA RESULT:    -7.349      6.709     10.347
 INTER + INTRA:         -11.450
 INTER:                 -10.196
 INTRA:                  -1.254
 UNBOUND:                -0.879
  Name = CHEMBL254713
  11 active torsions:
  status: ('A' for Active; 'I' for Inactive)
    1  A    between atoms: C_1  and  O_2
    2  A    between atoms: O_2  and  C_3
    3  A    between atoms: C_5  and  C_6
    4  A    between atoms: C_6  and  N_7
    5  A    between atoms: C_8  and  C_10
    6  A    between atoms: C_10  and  C_11
    7  A    between atoms: C_11  and  C_12
    8  A    between atoms: C_12  and  C_13
    9  A    between atoms: C_16  and  C_17
   10  A    between atoms: C_18  and  C_19
   11  A    between atoms: C_23  and  O_24
                            x       y       z     vdW  Elec       q    Type
                         _______ _______ _______ _____ _____    ______ ____

>  <TORSDO>
F 8

>  <SCORE>
-7.349

>  <RMSD_LB>
6.709

>  <RMSD_UB>
10.347

$$$$
CHEMBL254713
 OpenBabel10162523403D

 26 27  0  0  0  0  0  0  0  0999 V2000
  137.9670  137.5410  154.6060 N   0  0  0  0  0  0  0  0  0  0  0  0
  137.0450  137.6020  155.6260 C   0  0  0  0  0  0  0  0  0  0  0  0
  136.9440  138.5570  156.3900 O   0  0  0  0  0  0  0  0  0  0  0  0
  137.9640  136.7710  153.9930 H   0  0  0  0  0  0  0  0  0  0  0  0
  138.9400  138.5940  154.4290 C   0  0  0  0  0  2  0  0  0  0  0  0
  142.4400  137.7790  153.1430 C   0  0  0  0  0  0  0  0  0  0  0  0
  141.3850  138.1940  153.9650 C   0  0  0  0  0  3  0  0  0  0  0  0
  140.0570  138.1760  153.5050 C   0  0  0  0  0  0  0  0  0  0  0  0
  139.7980  137.7630  152.1920 C   0  0  0  0  0  3  0  0  0  0  0  0
  140.8430  137.3540  151.3600 C   0  0  0  0  0  3  0  0  0  0  0  0
  142.1530  137.3630  151.8370 C   0  0  0  0  0  0  0  0  0  0  0  0
  144.2740  138.8820  154.1860 C   0  0  0  0  0  1  0  0  0  0  0  0
  143.7570  137.7380  153.5210 O   0  0  0  0  0  0  0  0  0  0  0  0
  143.1770  136.9560  151.0250 O   0  0  0  0  0  0  0  0  0  0  0  0
  143.0760  136.9790  150.0940 H   0  0  0  0  0  0  0  0  0  0  0  0
  136.1100  136.4090  155.7010 C   0  0  0  0  0  2  0  0  0  0  0  0
  136.2680  135.5060  154.4790 C   0  0  0  0  0  2  0  0  0  0  0  0
  134.9810  134.7450  154.1530 C   0  0  0  0  0  2  0  0  0  0  0  0
  134.8910  134.3910  152.6920 C   0  0  0  0  0  0  0  0  0  0  0  0
  133.7860  133.6970  152.1960 C   0  0  0  0  0  3  0  0  0  0  0  0
  133.7240  133.3500  150.8460 C   0  0  0  0  0  3  0  0  0  0  0  0
  134.7580  133.6950  149.9600 C   0  0  0  0  0  0  0  0  0  0  0  0
  134.6570  133.2710  148.5210 C   0  0  0  0  0  1  0  0  0  0  0  0
  135.8610  134.4230  150.4420 C   0  0  0  0  0  0  0  0  0  0  0  0
  137.0030  134.8670  149.5700 C   0  0  0  0  0  1  0  0  0  0  0  0
  135.9110  134.7620  151.8050 C   0  0  0  0  0  3  0  0  0  0  0  0
  1  2  1  0  0  0  0
  2 16  1  0  0  0  0
  2  3  2  0  0  0  0
  4  1  1  0  0  0  0
  5  1  1  0  0  0  0
  6 13  1  0  0  0  0
  6  7  1  0  0  0  0
  8  7  2  0  0  0  0
  8  5  1  0  0  0  0
  9  8  1  0  0  0  0
 10 11  1  0  0  0  0
 10  9  2  0  0  0  0
 11  6  2  0  0  0  0
 13 12  1  0  0  0  0
 14 11  1  0  0  0  0
 15 14  1  0  0  0  0
 17 16  1  0  0  0  0
 18 17  1  0  0  0  0
 19 18  1  0  0  0  0
 20 19  1  0  0  0  0
 21 20  2  0  0  0  0
 22 24  2  0  0  0  0
 22 21  1  0  0  0  0
 23 22  1  0  0  0  0
 24 26  1  0  0  0  0
 25 24  1  0  0  0  0
 26 19  2  0  0  0  0
M  END
>  <MODEL>
4

>  <REMARK>
 VINA RESULT:    -7.327      2.446      5.952
 INTER + INTRA:         -11.418
 INTER:                 -10.594
 INTRA:                  -0.824
 UNBOUND:                -0.879
  Name = CHEMBL254713
  11 active torsions:
  status: ('A' for Active; 'I' for Inactive)
    1  A    between atoms: C_1  and  O_2
    2  A    between atoms: O_2  and  C_3
    3  A    between atoms: C_5  and  C_6
    4  A    between atoms: C_6  and  N_7
    5  A    between atoms: C_8  and  C_10
    6  A    between atoms: C_10  and  C_11
    7  A    between atoms: C_11  and  C_12
    8  A    between atoms: C_12  and  C_13
    9  A    between atoms: C_16  and  C_17
   10  A    between atoms: C_18  and  C_19
   11  A    between atoms: C_23  and  O_24
                            x       y       z     vdW  Elec       q    Type
                         _______ _______ _______ _____ _____    ______ ____

>  <TORSDO>
F 8

>  <SCORE>
-7.327

>  <RMSD_LB>
2.446

>  <RMSD_UB>
5.952

$$$$
CHEMBL254713
 OpenBabel10162523403D

 26 27  0  0  0  0  0  0  0  0999 V2000
  134.9260  135.7040  152.8610 N   0  0  0  0  0  0  0  0  0  0  0  0
  135.8320  135.0370  152.0680 C   0  0  0  0  0  0  0  0  0  0  0  0
  136.0660  133.8370  152.1730 O   0  0  0  0  0  0  0  0  0  0  0  0
  134.7410  136.6560  152.6940 H   0  0  0  0  0  0  0  0  0  0  0  0
  134.2440  135.0210  153.9360 C   0  0  0  0  0  2  0  0  0  0  0  0
  136.5070  136.5510  156.6010 C   0  0  0  0  0  0  0  0  0  0  0  0
  135.9110  136.2530  155.3700 C   0  0  0  0  0  3  0  0  0  0  0  0
  134.8900  135.2910  155.2720 C   0  0  0  0  0  0  0  0  0  0  0  0
  134.4910  134.6040  156.4250 C   0  0  0  0  0  3  0  0  0  0  0  0
  135.0840  134.8870  157.6580 C   0  0  0  0  0  3  0  0  0  0  0  0
  136.0840  135.8550  157.7410 C   0  0  0  0  0  0  0  0  0  0  0  0
  138.0150  138.1160  155.6270 C   0  0  0  0  0  1  0  0  0  0  0  0
  137.4860  137.4930  156.7890 O   0  0  0  0  0  0  0  0  0  0  0  0
  136.6610  136.1390  158.9500 O   0  0  0  0  0  0  0  0  0  0  0  0
  137.5730  136.3450  158.9970 H   0  0  0  0  0  0  0  0  0  0  0  0
  136.4860  135.8940  151.0020 C   0  0  0  0  0  2  0  0  0  0  0  0
  137.3210  137.0110  151.6280 C   0  0  0  0  0  2  0  0  0  0  0  0
  138.3210  137.6100  150.6360 C   0  0  0  0  0  2  0  0  0  0  0  0
  139.7380  137.5130  151.1370 C   0  0  0  0  0  0  0  0  0  0  0  0
  140.0590  137.9020  152.4380 C   0  0  0  0  0  3  0  0  0  0  0  0
  141.3800  137.8330  152.8850 C   0  0  0  0  0  3  0  0  0  0  0  0
  142.4060  137.3680  152.0470 C   0  0  0  0  0  0  0  0  0  0  0  0
  143.8160  137.3430  152.5660 C   0  0  0  0  0  1  0  0  0  0  0  0
  142.0880  136.9420  150.7430 C   0  0  0  0  0  0  0  0  0  0  0  0
  143.1070  136.3990  149.7800 C   0  0  0  0  0  1  0  0  0  0  0  0
  140.7540  137.0210  150.3070 C   0  0  0  0  0  3  0  0  0  0  0  0
  1  5  1  0  0  0  0
  2  3  2  0  0  0  0
  2  1  1  0  0  0  0
  4  1  1  0  0  0  0
  5  8  1  0  0  0  0
  6 13  1  0  0  0  0
  6 11  1  0  0  0  0
  7  6  2  0  0  0  0
  8  7  1  0  0  0  0
  8  9  2  0  0  0  0
  9 10  1  0  0  0  0
 10 11  2  0  0  0  0
 11 14  1  0  0  0  0
 12 13  1  0  0  0  0
 14 15  1  0  0  0  0
 16 17  1  0  0  0  0
 16  2  1  0  0  0  0
 18 19  1  0  0  0  0
 18 17  1  0  0  0  0
 19 20  1  0  0  0  0
 20 21  2  0  0  0  0
 22 23  1  0  0  0  0
 22 21  1  0  0  0  0
 24 22  2  0  0  0  0
 25 24  1  0  0  0  0
 26 24  1  0  0  0  0
 26 19  2  0  0  0  0
M  END
>  <MODEL>
5

>  <REMARK>
 VINA RESULT:    -7.252      2.568      5.097
 INTER + INTRA:         -11.310
 INTER:                 -10.393
 INTRA:                  -0.917
 UNBOUND:                -0.879
  Name = CHEMBL254713
  11 active torsions:
  status: ('A' for Active; 'I' for Inactive)
    1  A    between atoms: C_1  and  O_2
    2  A    between atoms: O_2  and  C_3
    3  A    between atoms: C_5  and  C_6
    4  A    between atoms: C_6  and  N_7
    5  A    between atoms: C_8  and  C_10
    6  A    between atoms: C_10  and  C_11
    7  A    between atoms: C_11  and  C_12
    8  A    between atoms: C_12  and  C_13
    9  A    between atoms: C_16  and  C_17
   10  A    between atoms: C_18  and  C_19
   11  A    between atoms: C_23  and  O_24
                            x       y       z     vdW  Elec       q    Type
                         _______ _______ _______ _____ _____    ______ ____

>  <TORSDO>
F 8

>  <SCORE>
-7.252

>  <RMSD_LB>
2.568

>  <RMSD_UB>
5.097

$$$$
CHEMBL254713
 OpenBabel10162523403D

 26 27  0  0  0  0  0  0  0  0999 V2000
  134.2860  133.6990  149.7780 N   0  0  0  0  0  0  0  0  0  0  0  0
  133.0090  133.9920  150.1990 C   0  0  0  0  0  0  0  0  0  0  0  0
  132.0150  133.3760  149.8250 O   0  0  0  0  0  0  0  0  0  0  0  0
  135.0480  134.1940  150.1540 H   0  0  0  0  0  0  0  0  0  0  0  0
  134.5180  132.6720  148.7880 C   0  0  0  0  0  2  0  0  0  0  0  0
  136.6910  133.9900  145.9400 C   0  0  0  0  0  0  0  0  0  0  0  0
  136.2810  133.4820  147.1790 C   0  0  0  0  0  3  0  0  0  0  0  0
  134.9220  133.2560  147.4570 C   0  0  0  0  0  0  0  0  0  0  0  0
  133.9670  133.5770  146.4840 C   0  0  0  0  0  3  0  0  0  0  0  0
  134.3620  134.0930  145.2480 C   0  0  0  0  0  3  0  0  0  0  0  0
  135.7160  134.2960  144.9820 C   0  0  0  0  0  0  0  0  0  0  0  0
  138.6290  135.3610  146.1210 C   0  0  0  0  0  1  0  0  0  0  0  0
  137.9940  134.2120  145.5780 O   0  0  0  0  0  0  0  0  0  0  0  0
  136.1060  134.7940  143.7680 O   0  0  0  0  0  0  0  0  0  0  0  0
  136.5590  135.6120  143.7200 H   0  0  0  0  0  0  0  0  0  0  0  0
  132.9240  135.1120  151.2180 C   0  0  0  0  0  2  0  0  0  0  0  0
  133.2860  136.4580  150.5910 C   0  0  0  0  0  2  0  0  0  0  0  0
  132.4900  136.7330  149.3140 C   0  0  0  0  0  2  0  0  0  0  0  0
  133.3880  137.0530  148.1470 C   0  0  0  0  0  0  0  0  0  0  0  0
  134.7760  137.0360  148.2940 C   0  0  0  0  0  3  0  0  0  0  0  0
  135.5990  137.3600  147.2140 C   0  0  0  0  0  3  0  0  0  0  0  0
  135.0560  137.6980  145.9640 C   0  0  0  0  0  0  0  0  0  0  0  0
  135.9850  138.0690  144.8420 C   0  0  0  0  0  1  0  0  0  0  0  0
  133.6590  137.6870  145.7960 C   0  0  0  0  0  0  0  0  0  0  0  0
  132.9810  138.0030  144.4910 C   0  0  0  0  0  1  0  0  0  0  0  0
  132.8430  137.3620  146.8940 C   0  0  0  0  0  3  0  0  0  0  0  0
  1  4  1  0  0  0  0
  1  2  1  0  0  0  0
  2 16  1  0  0  0  0
  3  2  2  0  0  0  0
  5  1  1  0  0  0  0
  6  7  1  0  0  0  0
  7  8  2  0  0  0  0
  8  5  1  0  0  0  0
  9  8  1  0  0  0  0
 10  9  2  0  0  0  0
 11 10  1  0  0  0  0
 11  6  2  0  0  0  0
 13  6  1  0  0  0  0
 13 12  1  0  0  0  0
 14 11  1  0  0  0  0
 15 14  1  0  0  0  0
 17 16  1  0  0  0  0
 18 17  1  0  0  0  0
 19 20  1  0  0  0  0
 19 18  1  0  0  0  0
 21 20  2  0  0  0  0
 22 21  1  0  0  0  0
 23 22  1  0  0  0  0
 24 22  2  0  0  0  0
 24 26  1  0  0  0  0
 25 24  1  0  0  0  0
 26 19  2  0  0  0  0
M  END
>  <MODEL>
6

>  <REMARK>
 VINA RESULT:    -7.250      6.027      9.035
 INTER + INTRA:         -11.308
 INTER:                  -8.616
 INTRA:                  -2.692
 UNBOUND:                -0.879
  Name = CHEMBL254713
  11 active torsions:
  status: ('A' for Active; 'I' for Inactive)
    1  A    between atoms: C_1  and  O_2
    2  A    between atoms: O_2  and  C_3
    3  A    between atoms: C_5  and  C_6
    4  A    between atoms: C_6  and  N_7
    5  A    between atoms: C_8  and  C_10
    6  A    between atoms: C_10  and  C_11
    7  A    between atoms: C_11  and  C_12
    8  A    between atoms: C_12  and  C_13
    9  A    between atoms: C_16  and  C_17
   10  A    between atoms: C_18  and  C_19
   11  A    between atoms: C_23  and  O_24
                            x       y       z     vdW  Elec       q    Type
                         _______ _______ _______ _____ _____    ______ ____

>  <TORSDO>
F 8

>  <SCORE>
-7.250

>  <RMSD_LB>
6.027

>  <RMSD_UB>
9.035

$$$$
CHEMBL254713
 OpenBabel10162523403D

 26 27  0  0  0  0  0  0  0  0999 V2000
  138.0130  136.8290  151.1560 N   0  0  0  0  0  0  0  0  0  0  0  0
  138.6990  138.0060  151.3520 C   0  0  0  0  0  0  0  0  0  0  0  0
  138.6170  138.9700  150.5990 O   0  0  0  0  0  0  0  0  0  0  0  0
  138.0780  136.1090  151.8240 H   0  0  0  0  0  0  0  0  0  0  0  0
  137.1990  136.6390  149.9770 C   0  0  0  0  0  2  0  0  0  0  0  0
  134.5420  133.9060  149.7690 C   0  0  0  0  0  0  0  0  0  0  0  0
  135.6640  134.6980  149.4960 C   0  0  0  0  0  3  0  0  0  0  0  0
  135.9610  135.8300  150.2750 C   0  0  0  0  0  0  0  0  0  0  0  0
  135.0980  136.1810  151.3200 C   0  0  0  0  0  3  0  0  0  0  0  0
  133.9700  135.4040  151.5970 C   0  0  0  0  0  3  0  0  0  0  0  0
  133.6990  134.2750  150.8250 C   0  0  0  0  0  0  0  0  0  0  0  0
  134.7560  132.6100  147.7830 C   0  0  0  0  0  1  0  0  0  0  0  0
  134.1970  132.7730  149.0790 O   0  0  0  0  0  0  0  0  0  0  0  0
  132.5980  133.5090  151.1000 O   0  0  0  0  0  0  0  0  0  0  0  0
  132.1910  133.5570  151.9420 H   0  0  0  0  0  0  0  0  0  0  0  0
  139.5320  138.0440  152.6200 C   0  0  0  0  0  2  0  0  0  0  0  0
  138.7180  138.5720  153.8000 C   0  0  0  0  0  2  0  0  0  0  0  0
  138.9920  137.7900  155.0860 C   0  0  0  0  0  2  0  0  0  0  0  0
  137.8180  136.9360  155.4880 C   0  0  0  0  0  0  0  0  0  0  0  0
  136.8530  136.5690  154.5490 C   0  0  0  0  0  3  0  0  0  0  0  0
  135.7550  135.7990  154.9360 C   0  0  0  0  0  3  0  0  0  0  0  0
  135.6010  135.3730  156.2650 C   0  0  0  0  0  0  0  0  0  0  0  0
  134.3840  134.5720  156.6380 C   0  0  0  0  0  1  0  0  0  0  0  0
  136.5840  135.7100  157.2140 C   0  0  0  0  0  0  0  0  0  0  0  0
  136.5280  135.2780  158.6530 C   0  0  0  0  0  1  0  0  0  0  0  0
  137.6820  136.4890  156.8090 C   0  0  0  0  0  3  0  0  0  0  0  0
  1  2  1  0  0  0  0
  1  4  1  0  0  0  0
  2 16  1  0  0  0  0
  3  2  2  0  0  0  0
  5  8  1  0  0  0  0
  5  1  1  0  0  0  0
  6 11  1  0  0  0  0
  7  6  2  0  0  0  0
  7  8  1  0  0  0  0
  8  9  2  0  0  0  0
  9 10  1  0  0  0  0
 11 14  1  0  0  0  0
 11 10  2  0  0  0  0
 12 13  1  0  0  0  0
 13  6  1  0  0  0  0
 14 15  1  0  0  0  0
 16 17  1  0  0  0  0
 17 18  1  0  0  0  0
 18 19  1  0  0  0  0
 19 26  1  0  0  0  0
 20 21  1  0  0  0  0
 20 19  2  0  0  0  0
 21 22  2  0  0  0  0
 22 23  1  0  0  0  0
 22 24  1  0  0  0  0
 24 25  1  0  0  0  0
 26 24  2  0  0  0  0
M  END
>  <MODEL>
7

>  <REMARK>
 VINA RESULT:    -7.047      2.627      6.462
 INTER + INTRA:         -11.016
 INTER:                  -9.802
 INTRA:                  -1.214
 UNBOUND:                -0.879
  Name = CHEMBL254713
  11 active torsions:
  status: ('A' for Active; 'I' for Inactive)
    1  A    between atoms: C_1  and  O_2
    2  A    between atoms: O_2  and  C_3
    3  A    between atoms: C_5  and  C_6
    4  A    between atoms: C_6  and  N_7
    5  A    between atoms: C_8  and  C_10
    6  A    between atoms: C_10  and  C_11
    7  A    between atoms: C_11  and  C_12
    8  A    between atoms: C_12  and  C_13
    9  A    between atoms: C_16  and  C_17
   10  A    between atoms: C_18  and  C_19
   11  A    between atoms: C_23  and  O_24
                            x       y       z     vdW  Elec       q    Type
                         _______ _______ _______ _____ _____    ______ ____

>  <TORSDO>
F 8

>  <SCORE>
-7.047

>  <RMSD_LB>
2.627

>  <RMSD_UB>
6.462

$$$$
CHEMBL254713
 OpenBabel10162523403D

 26 27  0  0  0  0  0  0  0  0999 V2000
  143.0250  139.5140  151.2990 N   0  0  0  0  0  0  0  0  0  0  0  0
  142.8580  138.1750  151.0280 C   0  0  0  0  0  0  0  0  0  0  0  0
  143.6550  137.5140  150.3690 O   0  0  0  0  0  0  0  0  0  0  0  0
  142.3780  139.9770  151.8790 H   0  0  0  0  0  0  0  0  0  0  0  0
  144.1390  140.2460  150.7410 C   0  0  0  0  0  2  0  0  0  0  0  0
  146.6650  140.0270  153.5930 C   0  0  0  0  0  0  0  0  0  0  0  0
  145.7180  139.6800  152.6230 C   0  0  0  0  0  3  0  0  0  0  0  0
  145.1280  140.6580  151.8030 C   0  0  0  0  0  0  0  0  0  0  0  0
  145.4780  142.0010  151.9870 C   0  0  0  0  0  3  0  0  0  0  0  0
  146.4160  142.3610  152.9580 C   0  0  0  0  0  3  0  0  0  0  0  0
  147.0030  141.3770  153.7530 C   0  0  0  0  0  0  0  0  0  0  0  0
  146.5810  138.6470  155.5330 C   0  0  0  0  0  1  0  0  0  0  0  0
  147.3080  139.1360  154.4140 O   0  0  0  0  0  0  0  0  0  0  0  0
  147.9280  141.7270  154.7000 O   0  0  0  0  0  0  0  0  0  0  0  0
  148.8240  141.4780  154.5950 H   0  0  0  0  0  0  0  0  0  0  0  0
  141.6280  137.5530  151.6610 C   0  0  0  0  0  2  0  0  0  0  0  0
  140.4480  138.5240  151.6450 C   0  0  0  0  0  2  0  0  0  0  0  0
  139.8730  138.7570  153.0440 C   0  0  0  0  0  2  0  0  0  0  0  0
  138.6760  137.8830  153.3130 C   0  0  0  0  0  0  0  0  0  0  0  0
  137.9230  137.3650  152.2590 C   0  0  0  0  0  3  0  0  0  0  0  0
  136.8000  136.5780  152.5190 C   0  0  0  0  0  3  0  0  0  0  0  0
  136.4090  136.2850  153.8350 C   0  0  0  0  0  0  0  0  0  0  0  0
  135.1740  135.4590  154.0620 C   0  0  0  0  0  1  0  0  0  0  0  0
  137.1790  136.7750  154.9060 C   0  0  0  0  0  0  0  0  0  0  0  0
  136.8640  136.4920  156.3490 C   0  0  0  0  0  1  0  0  0  0  0  0
  138.3060  137.5690  154.6280 C   0  0  0  0  0  3  0  0  0  0  0  0
  1  4  1  0  0  0  0
  2  1  1  0  0  0  0
  2 16  1  0  0  0  0
  3  2  2  0  0  0  0
  5  1  1  0  0  0  0
  5  8  1  0  0  0  0
  6 11  1  0  0  0  0
  6 13  1  0  0  0  0
  7  6  2  0  0  0  0
  8  9  2  0  0  0  0
  8  7  1  0  0  0  0
  9 10  1  0  0  0  0
 10 11  2  0  0  0  0
 11 14  1  0  0  0  0
 13 12  1  0  0  0  0
 15 14  1  0  0  0  0
 17 16  1  0  0  0  0
 17 18  1  0  0  0  0
 18 19  1  0  0  0  0
 19 26  1  0  0  0  0
 20 21  1  0  0  0  0
 20 19  2  0  0  0  0
 21 22  2  0  0  0  0
 22 23  1  0  0  0  0
 22 24  1  0  0  0  0
 24 25  1  0  0  0  0
 26 24  2  0  0  0  0
M  END
>  <MODEL>
8

>  <REMARK>
 VINA RESULT:    -7.033      5.324      9.077
 INTER + INTRA:         -10.995
 INTER:                 -10.269
 INTRA:                  -0.726
 UNBOUND:                -0.879
  Name = CHEMBL254713
  11 active torsions:
  status: ('A' for Active; 'I' for Inactive)
    1  A    between atoms: C_1  and  O_2
    2  A    between atoms: O_2  and  C_3
    3  A    between atoms: C_5  and  C_6
    4  A    between atoms: C_6  and  N_7
    5  A    between atoms: C_8  and  C_10
    6  A    between atoms: C_10  and  C_11
    7  A    between atoms: C_11  and  C_12
    8  A    between atoms: C_12  and  C_13
    9  A    between atoms: C_16  and  C_17
   10  A    between atoms: C_18  and  C_19
   11  A    between atoms: C_23  and  O_24
                            x       y       z     vdW  Elec       q    Type
                         _______ _______ _______ _____ _____    ______ ____

>  <TORSDO>
F 8

>  <SCORE>
-7.033

>  <RMSD_LB>
5.324

>  <RMSD_UB>
9.077

$$$$
CHEMBL254713
 OpenBabel10162523403D

 26 27  0  0  0  0  0  0  0  0999 V2000
  145.2570  141.4620  149.6900 N   0  0  0  0  0  0  0  0  0  0  0  0
  145.3470  140.2610  149.0230 C   0  0  0  0  0  0  0  0  0  0  0  0
  146.4030  139.8000  148.6010 O   0  0  0  0  0  0  0  0  0  0  0  0
  144.3890  141.7530  150.0510 H   0  0  0  0  0  0  0  0  0  0  0  0
  146.4220  142.2990  149.8620 C   0  0  0  0  0  2  0  0  0  0  0  0
  146.9400  141.3470  153.5210 C   0  0  0  0  0  0  0  0  0  0  0  0
  146.3370  141.6160  152.2870 C   0  0  0  0  0  3  0  0  0  0  0  0
  147.0970  142.0550  151.1880 C   0  0  0  0  0  0  0  0  0  0  0  0
  148.4740  142.2510  151.3500 C   0  0  0  0  0  3  0  0  0  0  0  0
  149.0860  141.9950  152.5800 C   0  0  0  0  0  3  0  0  0  0  0  0
  148.3200  141.5460  153.6550 C   0  0  0  0  0  0  0  0  0  0  0  0
  145.6810  139.6050  154.5460 C   0  0  0  0  0  1  0  0  0  0  0  0
  146.2780  140.8910  154.6320 O   0  0  0  0  0  0  0  0  0  0  0  0
  148.9190  141.2860  154.8580 O   0  0  0  0  0  0  0  0  0  0  0  0
  149.0700  140.4020  155.1260 H   0  0  0  0  0  0  0  0  0  0  0  0
  144.0350  139.5100  148.8980 C   0  0  0  0  0  2  0  0  0  0  0  0
  142.9980  140.0410  149.8870 C   0  0  0  0  0  2  0  0  0  0  0  0
  142.7960  139.0970  151.0740 C   0  0  0  0  0  2  0  0  0  0  0  0
  141.4530  138.4150  151.0290 C   0  0  0  0  0  0  0  0  0  0  0  0
  141.0020  137.8100  149.8550 C   0  0  0  0  0  3  0  0  0  0  0  0
  139.7460  137.2040  149.8160 C   0  0  0  0  0  3  0  0  0  0  0  0
  138.9170  137.1800  150.9490 C   0  0  0  0  0  0  0  0  0  0  0  0
  137.5600  136.5420  150.8460 C   0  0  0  0  0  1  0  0  0  0  0  0
  139.3740  137.7590  152.1480 C   0  0  0  0  0  0  0  0  0  0  0  0
  138.5770  137.7580  153.4230 C   0  0  0  0  0  1  0  0  0  0  0  0
  140.6410  138.3690  152.1700 C   0  0  0  0  0  3  0  0  0  0  0  0
  1  5  1  0  0  0  0
  1  4  1  0  0  0  0
  2  1  1  0  0  0  0
  3  2  2  0  0  0  0
  5  8  1  0  0  0  0
  6 11  1  0  0  0  0
  6 13  1  0  0  0  0
  7  6  2  0  0  0  0
  8  9  2  0  0  0  0
  8  7  1  0  0  0  0
  9 10  1  0  0  0  0
 10 11  2  0  0  0  0
 11 14  1  0  0  0  0
 12 13  1  0  0  0  0
 14 15  1  0  0  0  0
 16  2  1  0  0  0  0
 16 17  1  0  0  0  0
 17 18  1  0  0  0  0
 19 18  1  0  0  0  0
 19 26  1  0  0  0  0
 20 19  2  0  0  0  0
 21 20  1  0  0  0  0
 21 22  2  0  0  0  0
 22 24  1  0  0  0  0
 23 22  1  0  0  0  0
 24 26  2  0  0  0  0
 24 25  1  0  0  0  0
M  END
>  <MODEL>
9

>  <REMARK>
 VINA RESULT:    -6.901      6.808     10.353
 INTER + INTRA:         -10.806
 INTER:                  -9.927
 INTRA:                  -0.879
 UNBOUND:                -0.879
  Name = CHEMBL254713
  11 active torsions:
  status: ('A' for Active; 'I' for Inactive)
    1  A    between atoms: C_1  and  O_2
    2  A    between atoms: O_2  and  C_3
    3  A    between atoms: C_5  and  C_6
    4  A    between atoms: C_6  and  N_7
    5  A    between atoms: C_8  and  C_10
    6  A    between atoms: C_10  and  C_11
    7  A    between atoms: C_11  and  C_12
    8  A    between atoms: C_12  and  C_13
    9  A    between atoms: C_16  and  C_17
   10  A    between atoms: C_18  and  C_19
   11  A    between atoms: C_23  and  O_24
                            x       y       z     vdW  Elec       q    Type
                         _______ _______ _______ _____ _____    ______ ____

>  <TORSDO>
F 8

>  <SCORE>
-6.901

>  <RMSD_LB>
6.808

>  <RMSD_UB>
10.353

$$$$
