CHEMBL216091
 OpenBabel10162523483D

 24 25  0  0  0  0  0  0  0  0999 V2000
  135.1830  134.8730  153.2680 C   0  0  0  0  0  2  0  0  0  0  0  0
  136.1710  135.7480  154.0040 C   0  0  0  0  0  0  0  0  0  0  0  0
  136.2940  135.6740  155.3980 C   0  0  0  0  0  3  0  0  0  0  0  0
  137.2110  136.4770  156.0990 C   0  0  0  0  0  0  0  0  0  0  0  0
  138.0180  137.3870  155.3810 C   0  0  0  0  0  0  0  0  0  0  0  0
  137.8870  137.4690  153.9730 C   0  0  0  0  0  0  0  0  0  0  0  0
  136.9680  136.6560  153.3010 C   0  0  0  0  0  3  0  0  0  0  0  0
  137.3570  136.4080  157.4600 O   0  0  0  0  0  0  0  0  0  0  0  0
  136.6460  137.3290  158.2740 C   0  0  0  0  0  1  0  0  0  0  0  0
  138.9610  138.2470  155.8980 O   0  0  0  0  0  0  0  0  0  0  0  0
  140.2470  137.7660  156.2450 C   0  0  0  0  0  1  0  0  0  0  0  0
  138.7040  138.3790  153.3370 O   0  0  0  0  0  0  0  0  0  0  0  0
  139.1610  138.0580  152.0310 C   0  0  0  0  0  1  0  0  0  0  0  0
  135.8070  134.2150  152.0340 C   0  0  0  0  0  2  0  0  0  0  0  0
  134.3160  134.0070  148.5190 C   0  0  0  0  0  0  0  0  0  0  0  0
  135.2260  134.1680  149.5690 C   0  0  0  0  0  3  0  0  0  0  0  0
  134.8120  134.0490  150.9080 C   0  0  0  0  0  0  0  0  0  0  0  0
  133.4640  133.7870  151.1860 C   0  0  0  0  0  3  0  0  0  0  0  0
  132.5460  133.6280  150.1470 C   0  0  0  0  0  3  0  0  0  0  0  0
  132.9750  133.7360  148.8240 C   0  0  0  0  0  0  0  0  0  0  0  0
  135.4750  133.0850  146.6500 C   0  0  0  0  0  1  0  0  0  0  0  0
  134.6290  134.0900  147.1870 O   0  0  0  0  0  0  0  0  0  0  0  0
  132.0740  133.5770  147.8040 O   0  0  0  0  0  0  0  0  0  0  0  0
  131.1930  133.3210  147.9940 H   0  0  0  0  0  0  0  0  0  0  0  0
  1  2  1  0  0  0  0
  2  3  1  0  0  0  0
  3  4  2  0  0  0  0
  4  8  1  0  0  0  0
  5 10  1  0  0  0  0
  5  4  1  0  0  0  0
  6  5  2  0  0  0  0
  7  6  1  0  0  0  0
  7  2  2  0  0  0  0
  8  9  1  0  0  0  0
 10 11  1  0  0  0  0
 12  6  1  0  0  0  0
 13 12  1  0  0  0  0
 14  1  1  0  0  0  0
 15 20  2  0  0  0  0
 15 16  1  0  0  0  0
 16 17  2  0  0  0  0
 17 18  1  0  0  0  0
 17 14  1  0  0  0  0
 19 18  2  0  0  0  0
 20 19  1  0  0  0  0
 21 22  1  0  0  0  0
 22 15  1  0  0  0  0
 23 24  1  0  0  0  0
 23 20  1  0  0  0  0
M  END
>  <MODEL>
1

>  <REMARK>
 VINA RESULT:    -6.848      0.000      0.000
 INTER + INTRA:         -10.571
 INTER:                  -9.931
 INTRA:                  -0.640
 UNBOUND:                -0.720
  Name = CHEMBL216091
  12 active torsions:
  status: ('A' for Active; 'I' for Inactive)
    1  A    between atoms: C_1  and  O_2
    2  A    between atoms: O_2  and  C_3
    3  A    between atoms: C_5  and  C_6
    4  A    between atoms: C_6  and  C_7
    5  A    between atoms: C_7  and  C_8
    6  A    between atoms: C_10  and  O_11
    7  A    between atoms: O_11  and  C_12
    8  A    between atoms: C_13  and  O_14
    9  A    between atoms: O_14  and  C_15
   10  A    between atoms: C_16  and  O_17
   11  A    between atoms: O_17  and  C_18
   12  A    between atoms: C_22  and  O_23
                            x       y       z     vdW  Elec       q    Type
                         _______ _______ _______ _____ _____    ______ ____

>  <TORSDO>
F 8

>  <SCORE>
-6.848

>  <RMSD_LB>
0.000

>  <RMSD_UB>
0.000

$$$$
CHEMBL216091
 OpenBabel10162523483D

 24 25  0  0  0  0  0  0  0  0999 V2000
  134.5310  134.5860  154.2360 C   0  0  0  0  0  2  0  0  0  0  0  0
  135.1770  135.2490  155.4300 C   0  0  0  0  0  0  0  0  0  0  0  0
  136.0160  136.3590  155.2670 C   0  0  0  0  0  3  0  0  0  0  0  0
  136.6220  136.9910  156.3670 C   0  0  0  0  0  0  0  0  0  0  0  0
  136.3870  136.4870  157.6650 C   0  0  0  0  0  0  0  0  0  0  0  0
  135.5470  135.3590  157.8300 C   0  0  0  0  0  0  0  0  0  0  0  0
  134.9550  134.7510  156.7170 C   0  0  0  0  0  3  0  0  0  0  0  0
  137.4330  138.0870  156.2300 O   0  0  0  0  0  0  0  0  0  0  0  0
  138.6690  137.9450  155.5470 C   0  0  0  0  0  1  0  0  0  0  0  0
  136.8940  136.9730  158.8490 O   0  0  0  0  0  0  0  0  0  0  0  0
  136.3530  138.1490  159.4250 C   0  0  0  0  0  1  0  0  0  0  0  0
  135.3630  134.9190  159.1230 O   0  0  0  0  0  0  0  0  0  0  0  0
  134.0870  135.1210  159.7160 C   0  0  0  0  0  1  0  0  0  0  0  0
  133.9470  135.6090  153.2570 C   0  0  0  0  0  2  0  0  0  0  0  0
  133.0850  135.3090  149.5430 C   0  0  0  0  0  0  0  0  0  0  0  0
  133.2830  135.8380  150.8240 C   0  0  0  0  0  3  0  0  0  0  0  0
  133.7280  135.0230  151.8800 C   0  0  0  0  0  0  0  0  0  0  0  0
  133.9560  133.6620  151.6450 C   0  0  0  0  0  3  0  0  0  0  0  0
  133.7600  133.1220  150.3730 C   0  0  0  0  0  3  0  0  0  0  0  0
  133.3290  133.9450  149.3320 C   0  0  0  0  0  0  0  0  0  0  0  0
  133.5700  136.9820  147.9150 C   0  0  0  0  0  1  0  0  0  0  0  0
  132.6690  136.0250  148.4520 O   0  0  0  0  0  0  0  0  0  0  0  0
  133.1400  133.4150  148.0830 O   0  0  0  0  0  0  0  0  0  0  0  0
  133.8570  133.0190  147.6290 H   0  0  0  0  0  0  0  0  0  0  0  0
  1  2  1  0  0  0  0
  2  7  1  0  0  0  0
  3  2  2  0  0  0  0
  3  4  1  0  0  0  0
  4  5  2  0  0  0  0
  5  6  1  0  0  0  0
  5 10  1  0  0  0  0
  6 12  1  0  0  0  0
  7  6  2  0  0  0  0
  8  4  1  0  0  0  0
  9  8  1  0  0  0  0
 10 11  1  0  0  0  0
 12 13  1  0  0  0  0
 14  1  1  0  0  0  0
 15 16  1  0  0  0  0
 16 17  2  0  0  0  0
 17 14  1  0  0  0  0
 18 17  1  0  0  0  0
 19 18  2  0  0  0  0
 20 15  2  0  0  0  0
 20 19  1  0  0  0  0
 21 22  1  0  0  0  0
 22 15  1  0  0  0  0
 23 20  1  0  0  0  0
 24 23  1  0  0  0  0
M  END
>  <MODEL>
2

>  <REMARK>
 VINA RESULT:    -6.622      1.825      3.736
 INTER + INTRA:         -10.244
 INTER:                  -9.617
 INTRA:                  -0.628
 UNBOUND:                -0.720
  Name = CHEMBL216091
  12 active torsions:
  status: ('A' for Active; 'I' for Inactive)
    1  A    between atoms: C_1  and  O_2
    2  A    between atoms: O_2  and  C_3
    3  A    between atoms: C_5  and  C_6
    4  A    between atoms: C_6  and  C_7
    5  A    between atoms: C_7  and  C_8
    6  A    between atoms: C_10  and  O_11
    7  A    between atoms: O_11  and  C_12
    8  A    between atoms: C_13  and  O_14
    9  A    between atoms: O_14  and  C_15
   10  A    between atoms: C_16  and  O_17
   11  A    between atoms: O_17  and  C_18
   12  A    between atoms: C_22  and  O_23
                            x       y       z     vdW  Elec       q    Type
                         _______ _______ _______ _____ _____    ______ ____

>  <TORSDO>
F 8

>  <SCORE>
-6.622

>  <RMSD_LB>
1.825

>  <RMSD_UB>
3.736

$$$$
CHEMBL216091
 OpenBabel10162523483D

 24 25  0  0  0  0  0  0  0  0999 V2000
  143.9550  137.2110  153.3100 C   0  0  0  0  0  2  0  0  0  0  0  0
  145.0000  138.2510  153.6420 C   0  0  0  0  0  0  0  0  0  0  0  0
  144.8720  139.5690  153.1810 C   0  0  0  0  0  3  0  0  0  0  0  0
  145.8320  140.5500  153.4840 C   0  0  0  0  0  0  0  0  0  0  0  0
  146.9560  140.1960  154.2620 C   0  0  0  0  0  0  0  0  0  0  0  0
  147.0910  138.8620  154.7200 C   0  0  0  0  0  0  0  0  0  0  0  0
  146.1190  137.9070  154.4050 C   0  0  0  0  0  3  0  0  0  0  0  0
  145.7160  141.8470  153.0560 O   0  0  0  0  0  0  0  0  0  0  0  0
  145.7360  142.1140  151.6620 C   0  0  0  0  0  1  0  0  0  0  0  0
  147.9890  141.0190  154.6500 O   0  0  0  0  0  0  0  0  0  0  0  0
  148.9400  141.4640  153.6980 C   0  0  0  0  0  1  0  0  0  0  0  0
  148.2130  138.5860  155.4710 O   0  0  0  0  0  0  0  0  0  0  0  0
  148.0210  138.1270  156.8010 C   0  0  0  0  0  1  0  0  0  0  0  0
  143.0270  137.6690  152.1800 C   0  0  0  0  0  2  0  0  0  0  0  0
  139.2040  137.7240  152.1360 C   0  0  0  0  0  0  0  0  0  0  0  0
  140.5370  137.6160  151.7230 C   0  0  0  0  0  3  0  0  0  0  0  0
  141.5910  137.7980  152.6360 C   0  0  0  0  0  0  0  0  0  0  0  0
  141.2960  138.1110  153.9690 C   0  0  0  0  0  3  0  0  0  0  0  0
  139.9710  138.2250  154.3910 C   0  0  0  0  0  3  0  0  0  0  0  0
  138.9350  138.0290  153.4770 C   0  0  0  0  0  0  0  0  0  0  0  0
  138.0650  138.3020  150.1220 C   0  0  0  0  0  1  0  0  0  0  0  0
  138.1130  137.5500  151.3250 O   0  0  0  0  0  0  0  0  0  0  0  0
  137.6350  138.1380  153.8940 O   0  0  0  0  0  0  0  0  0  0  0  0
  137.0600  137.4020  153.8280 H   0  0  0  0  0  0  0  0  0  0  0  0
  1  2  1  0  0  0  0
  2  7  1  0  0  0  0
  3  4  1  0  0  0  0
  3  2  2  0  0  0  0
  4  5  2  0  0  0  0
  5 10  1  0  0  0  0
  5  6  1  0  0  0  0
  6 12  1  0  0  0  0
  7  6  2  0  0  0  0
  8  4  1  0  0  0  0
  9  8  1  0  0  0  0
 11 10  1  0  0  0  0
 12 13  1  0  0  0  0
 14 17  1  0  0  0  0
 14  1  1  0  0  0  0
 15 20  1  0  0  0  0
 16 15  2  0  0  0  0
 16 17  1  0  0  0  0
 17 18  2  0  0  0  0
 18 19  1  0  0  0  0
 20 23  1  0  0  0  0
 20 19  2  0  0  0  0
 21 22  1  0  0  0  0
 22 15  1  0  0  0  0
 24 23  1  0  0  0  0
M  END
>  <MODEL>
3

>  <REMARK>
 VINA RESULT:    -6.575      5.814      9.156
 INTER + INTRA:         -10.178
 INTER:                  -9.376
 INTRA:                  -0.802
 UNBOUND:                -0.720
  Name = CHEMBL216091
  12 active torsions:
  status: ('A' for Active; 'I' for Inactive)
    1  A    between atoms: C_1  and  O_2
    2  A    between atoms: O_2  and  C_3
    3  A    between atoms: C_5  and  C_6
    4  A    between atoms: C_6  and  C_7
    5  A    between atoms: C_7  and  C_8
    6  A    between atoms: C_10  and  O_11
    7  A    between atoms: O_11  and  C_12
    8  A    between atoms: C_13  and  O_14
    9  A    between atoms: O_14  and  C_15
   10  A    between atoms: C_16  and  O_17
   11  A    between atoms: O_17  and  C_18
   12  A    between atoms: C_22  and  O_23
                            x       y       z     vdW  Elec       q    Type
                         _______ _______ _______ _____ _____    ______ ____

>  <TORSDO>
F 8

>  <SCORE>
-6.575

>  <RMSD_LB>
5.814

>  <RMSD_UB>
9.156

$$$$
CHEMBL216091
 OpenBabel10162523483D

 24 25  0  0  0  0  0  0  0  0999 V2000
  143.3400  138.6230  151.1750 C   0  0  0  0  0  2  0  0  0  0  0  0
  144.3230  139.4220  151.9990 C   0  0  0  0  0  0  0  0  0  0  0  0
  144.7340  138.9720  153.2610 C   0  0  0  0  0  3  0  0  0  0  0  0
  145.6510  139.7000  154.0380 C   0  0  0  0  0  0  0  0  0  0  0  0
  146.1600  140.9190  153.5410 C   0  0  0  0  0  0  0  0  0  0  0  0
  145.7380  141.3810  152.2700 C   0  0  0  0  0  0  0  0  0  0  0  0
  144.8250  140.6340  151.5160 C   0  0  0  0  0  3  0  0  0  0  0  0
  146.0770  139.2680  155.2680 O   0  0  0  0  0  0  0  0  0  0  0  0
  147.0910  138.2760  155.3330 C   0  0  0  0  0  1  0  0  0  0  0  0
  147.0570  141.7600  154.1610 O   0  0  0  0  0  0  0  0  0  0  0  0
  148.4450  141.4790  154.1120 C   0  0  0  0  0  1  0  0  0  0  0  0
  146.2720  142.5780  151.8470 O   0  0  0  0  0  0  0  0  0  0  0  0
  146.9450  142.5970  150.5960 C   0  0  0  0  0  1  0  0  0  0  0  0
  142.7890  137.4200  151.9450 C   0  0  0  0  0  2  0  0  0  0  0  0
  138.9950  137.8020  152.2380 C   0  0  0  0  0  0  0  0  0  0  0  0
  140.2710  137.5650  151.7140 C   0  0  0  0  0  3  0  0  0  0  0  0
  141.4170  137.6880  152.5210 C   0  0  0  0  0  0  0  0  0  0  0  0
  141.2730  138.0720  153.8600 C   0  0  0  0  0  3  0  0  0  0  0  0
  140.0050  138.3130  154.3930 C   0  0  0  0  0  3  0  0  0  0  0  0
  138.8780  138.1760  153.5840 C   0  0  0  0  0  0  0  0  0  0  0  0
  137.6830  136.5800  150.6660 C   0  0  0  0  0  1  0  0  0  0  0  0
  137.8240  137.6930  151.5360 O   0  0  0  0  0  0  0  0  0  0  0  0
  137.6340  138.4100  154.1090 O   0  0  0  0  0  0  0  0  0  0  0  0
  137.0500  139.0040  153.6810 H   0  0  0  0  0  0  0  0  0  0  0  0
  1 14  1  0  0  0  0
  1  2  1  0  0  0  0
  2  3  1  0  0  0  0
  3  4  2  0  0  0  0
  4  8  1  0  0  0  0
  5  4  1  0  0  0  0
  5 10  1  0  0  0  0
  6  5  2  0  0  0  0
  7  2  2  0  0  0  0
  7  6  1  0  0  0  0
  8  9  1  0  0  0  0
 11 10  1  0  0  0  0
 12  6  1  0  0  0  0
 13 12  1  0  0  0  0
 14 17  1  0  0  0  0
 15 20  1  0  0  0  0
 16 15  2  0  0  0  0
 16 17  1  0  0  0  0
 17 18  2  0  0  0  0
 18 19  1  0  0  0  0
 20 23  1  0  0  0  0
 20 19  2  0  0  0  0
 21 22  1  0  0  0  0
 22 15  1  0  0  0  0
 24 23  1  0  0  0  0
M  END
>  <MODEL>
4

>  <REMARK>
 VINA RESULT:    -6.545      5.646      8.742
 INTER + INTRA:         -10.134
 INTER:                  -9.310
 INTRA:                  -0.824
 UNBOUND:                -0.720
  Name = CHEMBL216091
  12 active torsions:
  status: ('A' for Active; 'I' for Inactive)
    1  A    between atoms: C_1  and  O_2
    2  A    between atoms: O_2  and  C_3
    3  A    between atoms: C_5  and  C_6
    4  A    between atoms: C_6  and  C_7
    5  A    between atoms: C_7  and  C_8
    6  A    between atoms: C_10  and  O_11
    7  A    between atoms: O_11  and  C_12
    8  A    between atoms: C_13  and  O_14
    9  A    between atoms: O_14  and  C_15
   10  A    between atoms: C_16  and  O_17
   11  A    between atoms: O_17  and  C_18
   12  A    between atoms: C_22  and  O_23
                            x       y       z     vdW  Elec       q    Type
                         _______ _______ _______ _____ _____    ______ ____

>  <TORSDO>
F 8

>  <SCORE>
-6.545

>  <RMSD_LB>
5.646

>  <RMSD_UB>
8.742

$$$$
CHEMBL216091
 OpenBabel10162523483D

 24 25  0  0  0  0  0  0  0  0999 V2000
  138.2710  136.5650  150.1120 C   0  0  0  0  0  2  0  0  0  0  0  0
  137.0640  135.6550  150.1450 C   0  0  0  0  0  0  0  0  0  0  0  0
  136.5460  135.1070  148.9640 C   0  0  0  0  0  3  0  0  0  0  0  0
  135.4280  134.2550  148.9770 C   0  0  0  0  0  0  0  0  0  0  0  0
  134.8060  133.9550  150.2090 C   0  0  0  0  0  0  0  0  0  0  0  0
  135.3230  134.5170  151.4030 C   0  0  0  0  0  0  0  0  0  0  0  0
  136.4400  135.3590  151.3600 C   0  0  0  0  0  3  0  0  0  0  0  0
  134.9160  133.6970  147.8350 O   0  0  0  0  0  0  0  0  0  0  0  0
  134.2140  134.5260  146.9210 C   0  0  0  0  0  1  0  0  0  0  0  0
  133.7080  133.1490  150.4110 O   0  0  0  0  0  0  0  0  0  0  0  0
  132.4070  133.6390  150.1350 C   0  0  0  0  0  1  0  0  0  0  0  0
  134.6670  134.1830  152.5670 O   0  0  0  0  0  0  0  0  0  0  0  0
  133.9950  135.2200  153.2680 C   0  0  0  0  0  1  0  0  0  0  0  0
  138.1110  137.7660  151.0480 C   0  0  0  0  0  2  0  0  0  0  0  0
  139.9710  138.2810  154.3500 C   0  0  0  0  0  0  0  0  0  0  0  0
  138.9480  138.2070  153.3970 C   0  0  0  0  0  3  0  0  0  0  0  0
  139.2260  137.8510  152.0660 C   0  0  0  0  0  0  0  0  0  0  0  0
  140.5490  137.5860  151.6900 C   0  0  0  0  0  3  0  0  0  0  0  0
  141.5780  137.6580  152.6310 C   0  0  0  0  0  3  0  0  0  0  0  0
  141.2850  138.0020  153.9500 C   0  0  0  0  0  0  0  0  0  0  0  0
  139.1030  137.6710  156.4850 C   0  0  0  0  0  1  0  0  0  0  0  0
  139.7950  138.6040  155.6690 O   0  0  0  0  0  0  0  0  0  0  0  0
  142.2960  138.0690  154.8730 O   0  0  0  0  0  0  0  0  0  0  0  0
  143.1820  137.9210  154.6080 H   0  0  0  0  0  0  0  0  0  0  0  0
  1  2  1  0  0  0  0
  1 14  1  0  0  0  0
  2  7  1  0  0  0  0
  3  4  1  0  0  0  0
  3  2  2  0  0  0  0
  4  5  2  0  0  0  0
  5 10  1  0  0  0  0
  5  6  1  0  0  0  0
  6 12  1  0  0  0  0
  7  6  2  0  0  0  0
  8  4  1  0  0  0  0
  9  8  1  0  0  0  0
 11 10  1  0  0  0  0
 12 13  1  0  0  0  0
 14 17  1  0  0  0  0
 15 22  1  0  0  0  0
 16 15  2  0  0  0  0
 17 16  1  0  0  0  0
 18 17  2  0  0  0  0
 18 19  1  0  0  0  0
 19 20  2  0  0  0  0
 20 15  1  0  0  0  0
 20 23  1  0  0  0  0
 22 21  1  0  0  0  0
 24 23  1  0  0  0  0
M  END
>  <MODEL>
5

>  <REMARK>
 VINA RESULT:    -6.516      2.091      8.403
 INTER + INTRA:         -10.093
 INTER:                  -9.256
 INTRA:                  -0.837
 UNBOUND:                -0.720
  Name = CHEMBL216091
  12 active torsions:
  status: ('A' for Active; 'I' for Inactive)
    1  A    between atoms: C_1  and  O_2
    2  A    between atoms: O_2  and  C_3
    3  A    between atoms: C_5  and  C_6
    4  A    between atoms: C_6  and  C_7
    5  A    between atoms: C_7  and  C_8
    6  A    between atoms: C_10  and  O_11
    7  A    between atoms: O_11  and  C_12
    8  A    between atoms: C_13  and  O_14
    9  A    between atoms: O_14  and  C_15
   10  A    between atoms: C_16  and  O_17
   11  A    between atoms: O_17  and  C_18
   12  A    between atoms: C_22  and  O_23
                            x       y       z     vdW  Elec       q    Type
                         _______ _______ _______ _____ _____    ______ ____

>  <TORSDO>
F 8

>  <SCORE>
-6.516

>  <RMSD_LB>
2.091

>  <RMSD_UB>
8.403

$$$$
CHEMBL216091
 OpenBabel10162523483D

 24 25  0  0  0  0  0  0  0  0999 V2000
  138.4430  136.6610  150.5140 C   0  0  0  0  0  2  0  0  0  0  0  0
  136.9660  136.3430  150.4960 C   0  0  0  0  0  0  0  0  0  0  0  0
  136.2070  136.3920  151.6740 C   0  0  0  0  0  3  0  0  0  0  0  0
  134.8310  136.1040  151.6740 C   0  0  0  0  0  0  0  0  0  0  0  0
  134.2030  135.7470  150.4610 C   0  0  0  0  0  0  0  0  0  0  0  0
  134.9700  135.6870  149.2720 C   0  0  0  0  0  0  0  0  0  0  0  0
  136.3380  135.9820  149.3010 C   0  0  0  0  0  3  0  0  0  0  0  0
  134.0690  136.1620  152.8120 O   0  0  0  0  0  0  0  0  0  0  0  0
  134.0530  135.0410  153.6840 C   0  0  0  0  0  1  0  0  0  0  0  0
  132.8750  135.4320  150.2760 O   0  0  0  0  0  0  0  0  0  0  0  0
  132.4170  134.1140  150.5210 C   0  0  0  0  0  1  0  0  0  0  0  0
  134.2930  135.3300  148.1270 O   0  0  0  0  0  0  0  0  0  0  0  0
  134.6890  134.1350  147.4700 C   0  0  0  0  0  1  0  0  0  0  0  0
  138.7190  138.0820  151.0140 C   0  0  0  0  0  2  0  0  0  0  0  0
  139.5360  138.2880  154.7450 C   0  0  0  0  0  0  0  0  0  0  0  0
  138.8300  138.2860  153.5360 C   0  0  0  0  0  3  0  0  0  0  0  0
  139.4940  138.0910  152.3130 C   0  0  0  0  0  0  0  0  0  0  0  0
  140.8840  137.9170  152.3090 C   0  0  0  0  0  3  0  0  0  0  0  0
  141.6000  137.9190  153.5070 C   0  0  0  0  0  3  0  0  0  0  0  0
  140.9250  138.1020  154.7140 C   0  0  0  0  0  0  0  0  0  0  0  0
  137.6550  137.9690  156.1750 C   0  0  0  0  0  1  0  0  0  0  0  0
  138.9750  138.4550  155.9830 O   0  0  0  0  0  0  0  0  0  0  0  0
  141.6280  138.1010  155.8900 O   0  0  0  0  0  0  0  0  0  0  0  0
  142.5600  138.0150  155.8780 H   0  0  0  0  0  0  0  0  0  0  0  0
  1 14  1  0  0  0  0
  2  1  1  0  0  0  0
  2  3  1  0  0  0  0
  4  3  2  0  0  0  0
  4  8  1  0  0  0  0
  5  4  1  0  0  0  0
  6  7  1  0  0  0  0
  6  5  2  0  0  0  0
  7  2  2  0  0  0  0
  8  9  1  0  0  0  0
 10  5  1  0  0  0  0
 10 11  1  0  0  0  0
 12  6  1  0  0  0  0
 13 12  1  0  0  0  0
 14 17  1  0  0  0  0
 15 22  1  0  0  0  0
 16 15  2  0  0  0  0
 17 16  1  0  0  0  0
 18 17  2  0  0  0  0
 18 19  1  0  0  0  0
 19 20  2  0  0  0  0
 20 15  1  0  0  0  0
 20 23  1  0  0  0  0
 22 21  1  0  0  0  0
 24 23  1  0  0  0  0
M  END
>  <MODEL>
6

>  <REMARK>
 VINA RESULT:    -6.479      2.104      7.903
 INTER + INTRA:         -10.039
 INTER:                  -9.234
 INTRA:                  -0.804
 UNBOUND:                -0.720
  Name = CHEMBL216091
  12 active torsions:
  status: ('A' for Active; 'I' for Inactive)
    1  A    between atoms: C_1  and  O_2
    2  A    between atoms: O_2  and  C_3
    3  A    between atoms: C_5  and  C_6
    4  A    between atoms: C_6  and  C_7
    5  A    between atoms: C_7  and  C_8
    6  A    between atoms: C_10  and  O_11
    7  A    between atoms: O_11  and  C_12
    8  A    between atoms: C_13  and  O_14
    9  A    between atoms: O_14  and  C_15
   10  A    between atoms: C_16  and  O_17
   11  A    between atoms: O_17  and  C_18
   12  A    between atoms: C_22  and  O_23
                            x       y       z     vdW  Elec       q    Type
                         _______ _______ _______ _____ _____    ______ ____

>  <TORSDO>
F 8

>  <SCORE>
-6.479

>  <RMSD_LB>
2.104

>  <RMSD_UB>
7.903

$$$$
CHEMBL216091
 OpenBabel10162523483D

 24 25  0  0  0  0  0  0  0  0999 V2000
  134.4050  135.7760  154.1390 C   0  0  0  0  0  2  0  0  0  0  0  0
  134.8880  135.4420  152.7470 C   0  0  0  0  0  0  0  0  0  0  0  0
  134.2150  134.4950  151.9620 C   0  0  0  0  0  3  0  0  0  0  0  0
  134.6470  134.1760  150.6630 C   0  0  0  0  0  0  0  0  0  0  0  0
  135.7930  134.8160  150.1430 C   0  0  0  0  0  0  0  0  0  0  0  0
  136.4800  135.7660  150.9380 C   0  0  0  0  0  0  0  0  0  0  0  0
  136.0250  136.0660  152.2270 C   0  0  0  0  0  3  0  0  0  0  0  0
  133.9930  133.2650  149.8750 O   0  0  0  0  0  0  0  0  0  0  0  0
  132.7390  133.6190  149.3130 C   0  0  0  0  0  1  0  0  0  0  0  0
  136.3580  134.6270  148.9010 O   0  0  0  0  0  0  0  0  0  0  0  0
  135.7800  135.2330  147.7580 C   0  0  0  0  0  1  0  0  0  0  0  0
  137.5900  136.3500  150.3680 O   0  0  0  0  0  0  0  0  0  0  0  0
  137.6110  137.7670  150.2630 C   0  0  0  0  0  1  0  0  0  0  0  0
  135.1430  134.9680  155.2120 C   0  0  0  0  0  2  0  0  0  0  0  0
  136.6080  136.3390  158.4670 C   0  0  0  0  0  0  0  0  0  0  0  0
  135.9190  135.5310  157.5560 C   0  0  0  0  0  3  0  0  0  0  0  0
  135.8820  135.8550  156.1880 C   0  0  0  0  0  0  0  0  0  0  0  0
  136.5310  137.0140  155.7420 C   0  0  0  0  0  3  0  0  0  0  0  0
  137.2190  137.8290  156.6420 C   0  0  0  0  0  3  0  0  0  0  0  0
  137.2560  137.4880  157.9940 C   0  0  0  0  0  0  0  0  0  0  0  0
  135.5060  135.8960  160.5350 C   0  0  0  0  0  1  0  0  0  0  0  0
  136.7110  136.0970  159.8120 O   0  0  0  0  0  0  0  0  0  0  0  0
  137.9350  138.2880  158.8760 O   0  0  0  0  0  0  0  0  0  0  0  0
  137.8700  139.2200  158.8080 H   0  0  0  0  0  0  0  0  0  0  0  0
  1 14  1  0  0  0  0
  2  1  1  0  0  0  0
  3  2  2  0  0  0  0
  4  3  1  0  0  0  0
  5  4  2  0  0  0  0
  5  6  1  0  0  0  0
  6  7  2  0  0  0  0
  7  2  1  0  0  0  0
  8  4  1  0  0  0  0
  9  8  1  0  0  0  0
 10  5  1  0  0  0  0
 11 10  1  0  0  0  0
 12  6  1  0  0  0  0
 13 12  1  0  0  0  0
 14 17  1  0  0  0  0
 15 22  1  0  0  0  0
 16 15  2  0  0  0  0
 17 16  1  0  0  0  0
 18 17  2  0  0  0  0
 18 19  1  0  0  0  0
 19 20  2  0  0  0  0
 20 15  1  0  0  0  0
 20 23  1  0  0  0  0
 22 21  1  0  0  0  0
 24 23  1  0  0  0  0
M  END
>  <MODEL>
7

>  <REMARK>
 VINA RESULT:    -6.410      1.988      8.077
 INTER + INTRA:          -9.941
 INTER:                  -9.142
 INTRA:                  -0.799
 UNBOUND:                -0.720
  Name = CHEMBL216091
  12 active torsions:
  status: ('A' for Active; 'I' for Inactive)
    1  A    between atoms: C_1  and  O_2
    2  A    between atoms: O_2  and  C_3
    3  A    between atoms: C_5  and  C_6
    4  A    between atoms: C_6  and  C_7
    5  A    between atoms: C_7  and  C_8
    6  A    between atoms: C_10  and  O_11
    7  A    between atoms: O_11  and  C_12
    8  A    between atoms: C_13  and  O_14
    9  A    between atoms: O_14  and  C_15
   10  A    between atoms: C_16  and  O_17
   11  A    between atoms: O_17  and  C_18
   12  A    between atoms: C_22  and  O_23
                            x       y       z     vdW  Elec       q    Type
                         _______ _______ _______ _____ _____    ______ ____

>  <TORSDO>
F 8

>  <SCORE>
-6.410

>  <RMSD_LB>
1.988

>  <RMSD_UB>
8.077

$$$$
CHEMBL216091
 OpenBabel10162523483D

 24 25  0  0  0  0  0  0  0  0999 V2000
  134.2290  133.0460  150.4380 C   0  0  0  0  0  2  0  0  0  0  0  0
  134.3110  133.5280  149.0080 C   0  0  0  0  0  0  0  0  0  0  0  0
  133.9840  134.8500  148.6770 C   0  0  0  0  0  3  0  0  0  0  0  0
  134.0590  135.3170  147.3530 C   0  0  0  0  0  0  0  0  0  0  0  0
  134.4610  134.4290  146.3320 C   0  0  0  0  0  0  0  0  0  0  0  0
  134.7820  133.0890  146.6640 C   0  0  0  0  0  0  0  0  0  0  0  0
  134.7020  132.6530  147.9910 C   0  0  0  0  0  3  0  0  0  0  0  0
  133.7590  136.6100  147.0130 O   0  0  0  0  0  0  0  0  0  0  0  0
  132.3990  137.0200  147.0050 C   0  0  0  0  0  1  0  0  0  0  0  0
  134.5880  134.7090  144.9900 O   0  0  0  0  0  0  0  0  0  0  0  0
  135.6950  135.4590  144.5220 C   0  0  0  0  0  1  0  0  0  0  0  0
  135.1650  132.2770  145.6180 O   0  0  0  0  0  0  0  0  0  0  0  0
  136.4700  131.7170  145.6600 C   0  0  0  0  0  1  0  0  0  0  0  0
  133.4830  134.0360  151.3360 C   0  0  0  0  0  2  0  0  0  0  0  0
  136.1560  136.1270  153.1000 C   0  0  0  0  0  0  0  0  0  0  0  0
  135.3350  135.5830  152.1050 C   0  0  0  0  0  3  0  0  0  0  0  0
  134.3710  134.6090  152.4180 C   0  0  0  0  0  0  0  0  0  0  0  0
  134.2500  134.1660  153.7420 C   0  0  0  0  0  3  0  0  0  0  0  0
  135.0660  134.6980  154.7420 C   0  0  0  0  0  3  0  0  0  0  0  0
  136.0090  135.6730  154.4180 C   0  0  0  0  0  0  0  0  0  0  0  0
  137.6800  137.1770  151.5960 C   0  0  0  0  0  1  0  0  0  0  0  0
  137.1100  137.0880  152.8940 O   0  0  0  0  0  0  0  0  0  0  0  0
  136.8070  136.1970  155.4010 O   0  0  0  0  0  0  0  0  0  0  0  0
  137.5510  135.7170  155.7050 H   0  0  0  0  0  0  0  0  0  0  0  0
  1 14  1  0  0  0  0
  2  1  1  0  0  0  0
  3  2  1  0  0  0  0
  4  3  2  0  0  0  0
  5  6  2  0  0  0  0
  5  4  1  0  0  0  0
  6  7  1  0  0  0  0
  7  2  2  0  0  0  0
  8  4  1  0  0  0  0
  9  8  1  0  0  0  0
 10  5  1  0  0  0  0
 11 10  1  0  0  0  0
 12 13  1  0  0  0  0
 12  6  1  0  0  0  0
 14 17  1  0  0  0  0
 15 20  1  0  0  0  0
 16 17  1  0  0  0  0
 16 15  2  0  0  0  0
 17 18  2  0  0  0  0
 18 19  1  0  0  0  0
 20 19  2  0  0  0  0
 20 23  1  0  0  0  0
 21 22  1  0  0  0  0
 22 15  1  0  0  0  0
 23 24  1  0  0  0  0
M  END
>  <MODEL>
8

>  <REMARK>
 VINA RESULT:    -6.344      2.240      8.089
 INTER + INTRA:          -9.846
 INTER:                  -9.019
 INTRA:                  -0.826
 UNBOUND:                -0.720
  Name = CHEMBL216091
  12 active torsions:
  status: ('A' for Active; 'I' for Inactive)
    1  A    between atoms: C_1  and  O_2
    2  A    between atoms: O_2  and  C_3
    3  A    between atoms: C_5  and  C_6
    4  A    between atoms: C_6  and  C_7
    5  A    between atoms: C_7  and  C_8
    6  A    between atoms: C_10  and  O_11
    7  A    between atoms: O_11  and  C_12
    8  A    between atoms: C_13  and  O_14
    9  A    between atoms: O_14  and  C_15
   10  A    between atoms: C_16  and  O_17
   11  A    between atoms: O_17  and  C_18
   12  A    between atoms: C_22  and  O_23
                            x       y       z     vdW  Elec       q    Type
                         _______ _______ _______ _____ _____    ______ ____

>  <TORSDO>
F 8

>  <SCORE>
-6.344

>  <RMSD_LB>
2.240

>  <RMSD_UB>
8.089

$$$$
CHEMBL216091
 OpenBabel10162523483D

 24 25  0  0  0  0  0  0  0  0999 V2000
  135.0570  135.8900  153.0410 C   0  0  0  0  0  2  0  0  0  0  0  0
  135.3670  135.3830  151.6510 C   0  0  0  0  0  0  0  0  0  0  0  0
  134.5210  134.4620  151.0180 C   0  0  0  0  0  3  0  0  0  0  0  0
  134.7910  133.9840  149.7240 C   0  0  0  0  0  0  0  0  0  0  0  0
  135.9500  134.4330  149.0530 C   0  0  0  0  0  0  0  0  0  0  0  0
  136.8110  135.3560  149.6960 C   0  0  0  0  0  0  0  0  0  0  0  0
  136.5150  135.8170  150.9830 C   0  0  0  0  0  3  0  0  0  0  0  0
  133.9680  133.0960  149.0830 O   0  0  0  0  0  0  0  0  0  0  0  0
  132.7800  133.5790  148.4730 C   0  0  0  0  0  1  0  0  0  0  0  0
  136.3720  134.0720  147.7930 O   0  0  0  0  0  0  0  0  0  0  0  0
  135.8190  134.7030  146.6510 C   0  0  0  0  0  1  0  0  0  0  0  0
  137.9230  135.7500  148.9840 O   0  0  0  0  0  0  0  0  0  0  0  0
  138.8490  136.6140  149.6270 C   0  0  0  0  0  1  0  0  0  0  0  0
  135.7160  135.0330  154.1250 C   0  0  0  0  0  2  0  0  0  0  0  0
  137.8240  137.7110  155.8610 C   0  0  0  0  0  0  0  0  0  0  0  0
  137.2310  136.9220  154.8690 C   0  0  0  0  0  3  0  0  0  0  0  0
  136.3580  135.8730  155.2070 C   0  0  0  0  0  0  0  0  0  0  0  0
  136.0980  135.6070  156.5580 C   0  0  0  0  0  3  0  0  0  0  0  0
  136.6850  136.3860  157.5560 C   0  0  0  0  0  3  0  0  0  0  0  0
  137.5400  137.4310  157.2050 C   0  0  0  0  0  0  0  0  0  0  0  0
  139.8340  138.5040  154.8530 C   0  0  0  0  0  1  0  0  0  0  0  0
  138.6730  138.7610  155.6280 O   0  0  0  0  0  0  0  0  0  0  0  0
  138.1140  138.1960  158.1850 O   0  0  0  0  0  0  0  0  0  0  0  0
  137.7540  138.1940  159.0510 H   0  0  0  0  0  0  0  0  0  0  0  0
  1 14  1  0  0  0  0
  2  1  1  0  0  0  0
  3  2  1  0  0  0  0
  4  3  2  0  0  0  0
  5  6  2  0  0  0  0
  5  4  1  0  0  0  0
  6  7  1  0  0  0  0
  7  2  2  0  0  0  0
  8  4  1  0  0  0  0
  9  8  1  0  0  0  0
 10  5  1  0  0  0  0
 11 10  1  0  0  0  0
 12 13  1  0  0  0  0
 12  6  1  0  0  0  0
 14 17  1  0  0  0  0
 15 20  1  0  0  0  0
 16 17  1  0  0  0  0
 16 15  2  0  0  0  0
 17 18  2  0  0  0  0
 18 19  1  0  0  0  0
 20 19  2  0  0  0  0
 20 23  1  0  0  0  0
 21 22  1  0  0  0  0
 22 15  1  0  0  0  0
 23 24  1  0  0  0  0
M  END
>  <MODEL>
9

>  <REMARK>
 VINA RESULT:    -6.141      1.653      7.783
 INTER + INTRA:          -9.554
 INTER:                  -8.834
 INTRA:                  -0.720
 UNBOUND:                -0.720
  Name = CHEMBL216091
  12 active torsions:
  status: ('A' for Active; 'I' for Inactive)
    1  A    between atoms: C_1  and  O_2
    2  A    between atoms: O_2  and  C_3
    3  A    between atoms: C_5  and  C_6
    4  A    between atoms: C_6  and  C_7
    5  A    between atoms: C_7  and  C_8
    6  A    between atoms: C_10  and  O_11
    7  A    between atoms: O_11  and  C_12
    8  A    between atoms: C_13  and  O_14
    9  A    between atoms: O_14  and  C_15
   10  A    between atoms: C_16  and  O_17
   11  A    between atoms: O_17  and  C_18
   12  A    between atoms: C_22  and  O_23
                            x       y       z     vdW  Elec       q    Type
                         _______ _______ _______ _____ _____    ______ ____

>  <TORSDO>
F 8

>  <SCORE>
-6.141

>  <RMSD_LB>
1.653

>  <RMSD_UB>
7.783

$$$$
