CHEMBL3454557
 OpenBabel10162523553D

 22 23  0  0  0  0  0  0  0  0999 V2000
  146.6960  142.3130  149.7640 C   0  0  0  0  0  2  0  0  0  0  0  0
  146.9440  141.3500  153.4540 C   0  0  0  0  0  0  0  0  0  0  0  0
  146.4250  141.6280  152.1840 C   0  0  0  0  0  3  0  0  0  0  0  0
  147.2670  142.0370  151.1310 C   0  0  0  0  0  0  0  0  0  0  0  0
  148.6370  142.1900  151.3750 C   0  0  0  0  0  3  0  0  0  0  0  0
  149.1660  141.9210  152.6390 C   0  0  0  0  0  3  0  0  0  0  0  0
  148.3220  141.5020  153.6660 C   0  0  0  0  0  0  0  0  0  0  0  0
  145.6280  139.6360  154.4610 C   0  0  0  0  0  1  0  0  0  0  0  0
  146.2100  140.9290  154.5320 O   0  0  0  0  0  0  0  0  0  0  0  0
  148.8420  141.2350  154.9050 O   0  0  0  0  0  0  0  0  0  0  0  0
  149.2700  140.4180  155.0680 H   0  0  0  0  0  0  0  0  0  0  0  0
  145.4890  141.5600  149.5200 N   0  0  0  0  0  0  0  0  0  0  0  0
  145.5060  140.3420  148.8750 C   0  0  0  0  0  0  0  0  0  0  0  0
  146.5420  139.7770  148.5260 O   0  0  0  0  0  0  0  0  0  0  0  0
  144.6280  141.9270  149.8220 H   0  0  0  0  0  0  0  0  0  0  0  0
  144.1230  139.7190  148.6620 C   0  0  0  0  0  2  0  0  0  0  0  0
  143.1110  140.4260  149.3720 O   0  0  0  0  0  0  0  0  0  0  0  0
  142.4370  139.6390  150.3500 C   0  0  0  0  0  3  0  0  0  0  0  0
  143.1620  139.5340  151.6900 C   0  0  0  0  0  2  0  0  0  0  0  0
  142.6840  138.2240  152.3080 C   0  0  0  0  0  2  0  0  0  0  0  0
  142.1250  137.3870  151.1600 C   0  0  0  0  0  2  0  0  0  0  0  0
  142.3990  138.1830  149.8920 C   0  0  0  0  0  2  0  0  0  0  0  0
  1  4  1  0  0  0  0
  2  7  1  0  0  0  0
  2  9  1  0  0  0  0
  3  2  2  0  0  0  0
  4  5  2  0  0  0  0
  4  3  1  0  0  0  0
  5  6  1  0  0  0  0
  6  7  2  0  0  0  0
  7 10  1  0  0  0  0
  8  9  1  0  0  0  0
 10 11  1  0  0  0  0
 12  1  1  0  0  0  0
 12 15  1  0  0  0  0
 13 12  1  0  0  0  0
 14 13  2  0  0  0  0
 16 13  1  0  0  0  0
 16 17  1  0  0  0  0
 17 18  1  0  0  0  0
 18 19  1  0  0  0  0
 19 20  1  0  0  0  0
 21 20  1  0  0  0  0
 22 18  1  0  0  0  0
 22 21  1  0  0  0  0
M  END
>  <MODEL>
1

>  <REMARK>
 VINA RESULT:    -6.401      0.000      0.000
 INTER + INTRA:          -9.351
 INTER:                  -8.497
 INTRA:                  -0.854
 UNBOUND:                -0.518
  Name = CHEMBL3454557
  8 active torsions:
  status: ('A' for Active; 'I' for Inactive)
    1  A    between atoms: C_1  and  O_2
    2  A    between atoms: O_2  and  C_3
    3  A    between atoms: C_5  and  C_6
    4  A    between atoms: C_6  and  N_7
    5  A    between atoms: C_8  and  C_10
    6  A    between atoms: C_10  and  O_11
    7  A    between atoms: O_11  and  C_12
    8  A    between atoms: C_19  and  O_20
                            x       y       z     vdW  Elec       q    Type
                         _______ _______ _______ _____ _____    ______ ____

>  <TORSDO>
F 7

>  <SCORE>
-6.401

>  <RMSD_LB>
0.000

>  <RMSD_UB>
0.000

$$$$
CHEMBL3454557
 OpenBabel10162523553D

 22 23  0  0  0  0  0  0  0  0999 V2000
  142.7410  137.6960  151.8400 C   0  0  0  0  0  2  0  0  0  0  0  0
  139.9280  138.2130  154.3740 C   0  0  0  0  0  0  0  0  0  0  0  0
  141.2020  138.0850  153.8100 C   0  0  0  0  0  3  0  0  0  0  0  0
  141.3620  137.8100  152.4370 C   0  0  0  0  0  0  0  0  0  0  0  0
  140.2230  137.6390  151.6400 C   0  0  0  0  0  3  0  0  0  0  0  0
  138.9480  137.7580  152.1920 C   0  0  0  0  0  3  0  0  0  0  0  0
  138.8060  138.0460  153.5490 C   0  0  0  0  0  0  0  0  0  0  0  0
  139.9360  137.4760  156.6420 C   0  0  0  0  0  1  0  0  0  0  0  0
  139.6720  138.4970  155.6900 O   0  0  0  0  0  0  0  0  0  0  0  0
  137.5530  138.1660  154.0900 O   0  0  0  0  0  0  0  0  0  0  0  0
  136.7970  138.0780  153.5440 H   0  0  0  0  0  0  0  0  0  0  0  0
  143.4940  138.9190  151.9810 N   0  0  0  0  0  0  0  0  0  0  0  0
  144.5980  139.0070  152.8010 C   0  0  0  0  0  0  0  0  0  0  0  0
  145.0640  138.0450  153.4120 O   0  0  0  0  0  0  0  0  0  0  0  0
  143.2100  139.7150  151.4780 H   0  0  0  0  0  0  0  0  0  0  0  0
  145.2340  140.3990  152.8610 C   0  0  0  0  0  2  0  0  0  0  0  0
  146.0480  140.6560  151.7210 O   0  0  0  0  0  0  0  0  0  0  0  0
  147.4360  140.7760  152.0210 C   0  0  0  0  0  3  0  0  0  0  0  0
  147.7410  141.2400  153.4430 C   0  0  0  0  0  2  0  0  0  0  0  0
  149.1100  141.9070  153.3680 C   0  0  0  0  0  2  0  0  0  0  0  0
  149.3330  142.2620  151.8990 C   0  0  0  0  0  2  0  0  0  0  0  0
  148.0420  141.8970  151.1810 C   0  0  0  0  0  2  0  0  0  0  0  0
  1 12  1  0  0  0  0
  1  4  1  0  0  0  0
  2  9  1  0  0  0  0
  3  2  1  0  0  0  0
  4  3  2  0  0  0  0
  5  6  2  0  0  0  0
  5  4  1  0  0  0  0
  6  7  1  0  0  0  0
  7 10  1  0  0  0  0
  7  2  2  0  0  0  0
  9  8  1  0  0  0  0
 11 10  1  0  0  0  0
 12 13  1  0  0  0  0
 13 16  1  0  0  0  0
 13 14  2  0  0  0  0
 15 12  1  0  0  0  0
 17 18  1  0  0  0  0
 17 16  1  0  0  0  0
 18 19  1  0  0  0  0
 20 19  1  0  0  0  0
 21 20  1  0  0  0  0
 22 21  1  0  0  0  0
 22 18  1  0  0  0  0
M  END
>  <MODEL>
2

>  <REMARK>
 VINA RESULT:    -6.264      3.409      7.337
 INTER + INTRA:          -9.162
 INTER:                  -8.697
 INTRA:                  -0.465
 UNBOUND:                -0.518
  Name = CHEMBL3454557
  8 active torsions:
  status: ('A' for Active; 'I' for Inactive)
    1  A    between atoms: C_1  and  O_2
    2  A    between atoms: O_2  and  C_3
    3  A    between atoms: C_5  and  C_6
    4  A    between atoms: C_6  and  N_7
    5  A    between atoms: C_8  and  C_10
    6  A    between atoms: C_10  and  O_11
    7  A    between atoms: O_11  and  C_12
    8  A    between atoms: C_19  and  O_20
                            x       y       z     vdW  Elec       q    Type
                         _______ _______ _______ _____ _____    ______ ____

>  <TORSDO>
F 7

>  <SCORE>
-6.264

>  <RMSD_LB>
3.409

>  <RMSD_UB>
7.337

$$$$
CHEMBL3454557
 OpenBabel10162523553D

 22 23  0  0  0  0  0  0  0  0999 V2000
  144.6520  141.1500  150.5000 C   0  0  0  0  0  2  0  0  0  0  0  0
  146.2600  140.3110  153.8640 C   0  0  0  0  0  0  0  0  0  0  0  0
  145.4050  140.2880  152.7570 C   0  0  0  0  0  3  0  0  0  0  0  0
  145.5690  141.2000  151.6950 C   0  0  0  0  0  0  0  0  0  0  0  0
  146.5900  142.1560  151.7710 C   0  0  0  0  0  3  0  0  0  0  0  0
  147.4460  142.1920  152.8720 C   0  0  0  0  0  3  0  0  0  0  0  0
  147.2800  141.2730  153.9070 C   0  0  0  0  0  0  0  0  0  0  0  0
  146.5710  138.1050  154.7130 C   0  0  0  0  0  1  0  0  0  0  0  0
  146.1920  139.4560  154.9320 O   0  0  0  0  0  0  0  0  0  0  0  0
  148.1240  141.3080  154.9860 O   0  0  0  0  0  0  0  0  0  0  0  0
  148.6100  140.5440  155.2260 H   0  0  0  0  0  0  0  0  0  0  0  0
  143.4450  140.4080  150.7760 N   0  0  0  0  0  0  0  0  0  0  0  0
  142.6330  139.9310  149.7700 C   0  0  0  0  0  0  0  0  0  0  0  0
  142.9080  140.0360  148.5750 O   0  0  0  0  0  0  0  0  0  0  0  0
  143.1920  140.2390  151.7120 H   0  0  0  0  0  0  0  0  0  0  0  0
  141.3710  139.2150  150.2590 C   0  0  0  0  0  2  0  0  0  0  0  0
  141.5890  137.8170  150.4220 O   0  0  0  0  0  0  0  0  0  0  0  0
  141.6220  137.3940  151.7820 C   0  0  0  0  0  3  0  0  0  0  0  0
  140.9820  138.3710  152.7660 C   0  0  0  0  0  2  0  0  0  0  0  0
  141.6600  138.1020  154.1050 C   0  0  0  0  0  2  0  0  0  0  0  0
  142.9680  137.3810  153.7850 C   0  0  0  0  0  2  0  0  0  0  0  0
  143.0690  137.3540  152.2670 C   0  0  0  0  0  2  0  0  0  0  0  0
  1 12  1  0  0  0  0
  1  4  1  0  0  0  0
  2  7  1  0  0  0  0
  2  9  1  0  0  0  0
  3  2  2  0  0  0  0
  4  5  2  0  0  0  0
  4  3  1  0  0  0  0
  5  6  1  0  0  0  0
  6  7  2  0  0  0  0
  7 10  1  0  0  0  0
  8  9  1  0  0  0  0
 10 11  1  0  0  0  0
 12 15  1  0  0  0  0
 13 16  1  0  0  0  0
 13 12  1  0  0  0  0
 14 13  2  0  0  0  0
 16 17  1  0  0  0  0
 17 18  1  0  0  0  0
 18 22  1  0  0  0  0
 18 19  1  0  0  0  0
 19 20  1  0  0  0  0
 21 20  1  0  0  0  0
 22 21  1  0  0  0  0
M  END
>  <MODEL>
3

>  <REMARK>
 VINA RESULT:    -6.211      1.656      2.382
 INTER + INTRA:          -9.089
 INTER:                  -8.219
 INTRA:                  -0.869
 UNBOUND:                -0.518
  Name = CHEMBL3454557
  8 active torsions:
  status: ('A' for Active; 'I' for Inactive)
    1  A    between atoms: C_1  and  O_2
    2  A    between atoms: O_2  and  C_3
    3  A    between atoms: C_5  and  C_6
    4  A    between atoms: C_6  and  N_7
    5  A    between atoms: C_8  and  C_10
    6  A    between atoms: C_10  and  O_11
    7  A    between atoms: O_11  and  C_12
    8  A    between atoms: C_19  and  O_20
                            x       y       z     vdW  Elec       q    Type
                         _______ _______ _______ _____ _____    ______ ____

>  <TORSDO>
F 7

>  <SCORE>
-6.211

>  <RMSD_LB>
1.656

>  <RMSD_UB>
2.382

$$$$
CHEMBL3454557
 OpenBabel10162523553D

 22 23  0  0  0  0  0  0  0  0999 V2000
  146.1510  141.9940  150.3780 C   0  0  0  0  0  2  0  0  0  0  0  0
  148.1820  139.9660  152.9010 C   0  0  0  0  0  0  0  0  0  0  0  0
  147.5580  140.3720  151.7170 C   0  0  0  0  0  3  0  0  0  0  0  0
  146.8010  141.5590  151.6670 C   0  0  0  0  0  0  0  0  0  0  0  0
  146.6570  142.3240  152.8310 C   0  0  0  0  0  3  0  0  0  0  0  0
  147.2700  141.9260  154.0200 C   0  0  0  0  0  3  0  0  0  0  0  0
  148.0280  140.7570  154.0490 C   0  0  0  0  0  0  0  0  0  0  0  0
  148.2840  137.5870  153.0360 C   0  0  0  0  0  1  0  0  0  0  0  0
  148.9520  138.8410  153.0430 O   0  0  0  0  0  0  0  0  0  0  0  0
  148.6330  140.3690  155.2160 O   0  0  0  0  0  0  0  0  0  0  0  0
  148.7110  139.4590  155.4240 H   0  0  0  0  0  0  0  0  0  0  0  0
  144.9040  141.3070  150.1430 N   0  0  0  0  0  0  0  0  0  0  0  0
  144.7620  140.3740  149.1380 C   0  0  0  0  0  0  0  0  0  0  0  0
  145.6910  140.0080  148.4200 O   0  0  0  0  0  0  0  0  0  0  0  0
  144.1310  141.5110  150.7170 H   0  0  0  0  0  0  0  0  0  0  0  0
  143.3510  139.7910  149.0100 C   0  0  0  0  0  2  0  0  0  0  0  0
  142.5790  140.0190  150.1850 O   0  0  0  0  0  0  0  0  0  0  0  0
  142.2720  138.8310  150.9110 C   0  0  0  0  0  3  0  0  0  0  0  0
  140.8180  138.7210  151.3630 C   0  0  0  0  0  2  0  0  0  0  0  0
  140.8420  137.8150  152.5900 C   0  0  0  0  0  2  0  0  0  0  0  0
  142.2780  137.8360  153.1090 C   0  0  0  0  0  2  0  0  0  0  0  0
  143.0210  138.8400  152.2410 C   0  0  0  0  0  2  0  0  0  0  0  0
  1  4  1  0  0  0  0
  2  9  1  0  0  0  0
  2  7  1  0  0  0  0
  3  2  2  0  0  0  0
  4  3  1  0  0  0  0
  4  5  2  0  0  0  0
  5  6  1  0  0  0  0
  6  7  2  0  0  0  0
  7 10  1  0  0  0  0
  8  9  1  0  0  0  0
 10 11  1  0  0  0  0
 12  1  1  0  0  0  0
 12 15  1  0  0  0  0
 13 12  1  0  0  0  0
 14 13  2  0  0  0  0
 16 13  1  0  0  0  0
 16 17  1  0  0  0  0
 17 18  1  0  0  0  0
 18 19  1  0  0  0  0
 18 22  1  0  0  0  0
 19 20  1  0  0  0  0
 20 21  1  0  0  0  0
 22 21  1  0  0  0  0
M  END
>  <MODEL>
4

>  <REMARK>
 VINA RESULT:    -6.191      1.529      1.927
 INTER + INTRA:          -9.061
 INTER:                  -8.344
 INTRA:                  -0.717
 UNBOUND:                -0.518
  Name = CHEMBL3454557
  8 active torsions:
  status: ('A' for Active; 'I' for Inactive)
    1  A    between atoms: C_1  and  O_2
    2  A    between atoms: O_2  and  C_3
    3  A    between atoms: C_5  and  C_6
    4  A    between atoms: C_6  and  N_7
    5  A    between atoms: C_8  and  C_10
    6  A    between atoms: C_10  and  O_11
    7  A    between atoms: O_11  and  C_12
    8  A    between atoms: C_19  and  O_20
                            x       y       z     vdW  Elec       q    Type
                         _______ _______ _______ _____ _____    ______ ____

>  <TORSDO>
F 7

>  <SCORE>
-6.191

>  <RMSD_LB>
1.529

>  <RMSD_UB>
1.927

$$$$
CHEMBL3454557
 OpenBabel10162523553D

 22 23  0  0  0  0  0  0  0  0999 V2000
  141.1220  137.7010  150.7320 C   0  0  0  0  0  2  0  0  0  0  0  0
  140.2960  138.6390  154.3440 C   0  0  0  0  0  0  0  0  0  0  0  0
  140.1700  138.3930  152.9720 C   0  0  0  0  0  3  0  0  0  0  0  0
  141.2780  137.9820  152.2050 C   0  0  0  0  0  0  0  0  0  0  0  0
  142.5250  137.8450  152.8290 C   0  0  0  0  0  3  0  0  0  0  0  0
  142.6640  138.0940  154.1950 C   0  0  0  0  0  3  0  0  0  0  0  0
  141.5550  138.4850  154.9430 C   0  0  0  0  0  0  0  0  0  0  0  0
  137.9530  138.6800  154.7860 C   0  0  0  0  0  1  0  0  0  0  0  0
  139.2760  139.0230  155.1740 O   0  0  0  0  0  0  0  0  0  0  0  0
  141.6920  138.7250  156.2840 O   0  0  0  0  0  0  0  0  0  0  0  0
  141.5290  139.5810  156.6270 H   0  0  0  0  0  0  0  0  0  0  0  0
  142.3030  138.0620  149.9850 N   0  0  0  0  0  0  0  0  0  0  0  0
  142.4030  139.2600  149.3100 C   0  0  0  0  0  0  0  0  0  0  0  0
  141.5350  140.1310  149.3500 O   0  0  0  0  0  0  0  0  0  0  0  0
  143.0600  137.4340  149.9560 H   0  0  0  0  0  0  0  0  0  0  0  0
  143.7100  139.4420  148.5330 C   0  0  0  0  0  2  0  0  0  0  0  0
  144.8240  139.6020  149.4050 O   0  0  0  0  0  0  0  0  0  0  0  0
  144.9750  140.9270  149.9070 C   0  0  0  0  0  3  0  0  0  0  0  0
  146.2970  141.5980  149.5410 C   0  0  0  0  0  2  0  0  0  0  0  0
  146.5430  142.6350  150.6320 C   0  0  0  0  0  2  0  0  0  0  0  0
  145.6810  142.2170  151.8210 C   0  0  0  0  0  2  0  0  0  0  0  0
  145.0480  140.8890  151.4310 C   0  0  0  0  0  2  0  0  0  0  0  0
  1  4  1  0  0  0  0
  2  7  1  0  0  0  0
  2  9  1  0  0  0  0
  3  2  2  0  0  0  0
  4  5  2  0  0  0  0
  4  3  1  0  0  0  0
  5  6  1  0  0  0  0
  6  7  2  0  0  0  0
  7 10  1  0  0  0  0
  8  9  1  0  0  0  0
 10 11  1  0  0  0  0
 12  1  1  0  0  0  0
 13 14  2  0  0  0  0
 13 12  1  0  0  0  0
 15 12  1  0  0  0  0
 16 13  1  0  0  0  0
 16 17  1  0  0  0  0
 17 18  1  0  0  0  0
 18 22  1  0  0  0  0
 19 18  1  0  0  0  0
 19 20  1  0  0  0  0
 20 21  1  0  0  0  0
 22 21  1  0  0  0  0
M  END
>  <MODEL>
5

>  <REMARK>
 VINA RESULT:    -6.159      2.979      6.064
 INTER + INTRA:          -9.017
 INTER:                  -8.314
 INTRA:                  -0.704
 UNBOUND:                -0.518
  Name = CHEMBL3454557
  8 active torsions:
  status: ('A' for Active; 'I' for Inactive)
    1  A    between atoms: C_1  and  O_2
    2  A    between atoms: O_2  and  C_3
    3  A    between atoms: C_5  and  C_6
    4  A    between atoms: C_6  and  N_7
    5  A    between atoms: C_8  and  C_10
    6  A    between atoms: C_10  and  O_11
    7  A    between atoms: O_11  and  C_12
    8  A    between atoms: C_19  and  O_20
                            x       y       z     vdW  Elec       q    Type
                         _______ _______ _______ _____ _____    ______ ____

>  <TORSDO>
F 7

>  <SCORE>
-6.159

>  <RMSD_LB>
2.979

>  <RMSD_UB>
6.064

$$$$
CHEMBL3454557
 OpenBabel10162523553D

 22 23  0  0  0  0  0  0  0  0999 V2000
  144.0650  137.2250  153.7970 C   0  0  0  0  0  2  0  0  0  0  0  0
  140.4560  138.4360  154.1300 C   0  0  0  0  0  0  0  0  0  0  0  0
  141.7690  138.0680  154.4440 C   0  0  0  0  0  3  0  0  0  0  0  0
  142.6470  137.5970  153.4470 C   0  0  0  0  0  0  0  0  0  0  0  0
  142.1810  137.4740  152.1330 C   0  0  0  0  0  3  0  0  0  0  0  0
  140.8720  137.8320  151.8080 C   0  0  0  0  0  3  0  0  0  0  0  0
  140.0200  138.3110  152.8030 C   0  0  0  0  0  0  0  0  0  0  0  0
  138.9380  137.9920  155.9150 C   0  0  0  0  0  1  0  0  0  0  0  0
  139.5370  138.9210  155.0230 O   0  0  0  0  0  0  0  0  0  0  0  0
  138.7360  138.6650  152.4830 O   0  0  0  0  0  0  0  0  0  0  0  0
  138.2300  139.1810  153.0780 H   0  0  0  0  0  0  0  0  0  0  0  0
  145.0130  137.7530  152.8450 N   0  0  0  0  0  0  0  0  0  0  0  0
  146.2920  138.1130  153.2100 C   0  0  0  0  0  0  0  0  0  0  0  0
  146.7430  137.9480  154.3430 O   0  0  0  0  0  0  0  0  0  0  0  0
  144.7370  137.8610  151.9070 H   0  0  0  0  0  0  0  0  0  0  0  0
  147.1330  138.7020  152.0740 C   0  0  0  0  0  2  0  0  0  0  0  0
  146.3550  138.9220  150.9020 O   0  0  0  0  0  0  0  0  0  0  0  0
  146.4350  140.2530  150.3990 C   0  0  0  0  0  3  0  0  0  0  0  0
  147.6350  141.0510  150.9030 C   0  0  0  0  0  2  0  0  0  0  0  0
  147.2150  142.5150  150.8170 C   0  0  0  0  0  2  0  0  0  0  0  0
  145.6890  142.5190  150.7610 C   0  0  0  0  0  2  0  0  0  0  0  0
  145.2610  141.0690  150.9330 C   0  0  0  0  0  2  0  0  0  0  0  0
  2  3  1  0  0  0  0
  2  9  1  0  0  0  0
  4  1  1  0  0  0  0
  4  3  2  0  0  0  0
  5  4  1  0  0  0  0
  6  5  2  0  0  0  0
  6  7  1  0  0  0  0
  7  2  2  0  0  0  0
  9  8  1  0  0  0  0
 10  7  1  0  0  0  0
 10 11  1  0  0  0  0
 12 13  1  0  0  0  0
 12  1  1  0  0  0  0
 13 14  2  0  0  0  0
 15 12  1  0  0  0  0
 16 13  1  0  0  0  0
 17 16  1  0  0  0  0
 18 17  1  0  0  0  0
 18 19  1  0  0  0  0
 18 22  1  0  0  0  0
 20 19  1  0  0  0  0
 21 20  1  0  0  0  0
 21 22  1  0  0  0  0
M  END
>  <MODEL>
6

>  <REMARK>
 VINA RESULT:    -6.053      3.174      6.675
 INTER + INTRA:          -8.871
 INTER:                  -8.264
 INTRA:                  -0.607
 UNBOUND:                -0.518
  Name = CHEMBL3454557
  8 active torsions:
  status: ('A' for Active; 'I' for Inactive)
    1  A    between atoms: C_1  and  O_2
    2  A    between atoms: O_2  and  C_3
    3  A    between atoms: C_5  and  C_6
    4  A    between atoms: C_6  and  N_7
    5  A    between atoms: C_8  and  C_10
    6  A    between atoms: C_10  and  O_11
    7  A    between atoms: O_11  and  C_12
    8  A    between atoms: C_19  and  O_20
                            x       y       z     vdW  Elec       q    Type
                         _______ _______ _______ _____ _____    ______ ____

>  <TORSDO>
F 7

>  <SCORE>
-6.053

>  <RMSD_LB>
3.174

>  <RMSD_UB>
6.675

$$$$
CHEMBL3454557
 OpenBabel10162523553D

 22 23  0  0  0  0  0  0  0  0999 V2000
  135.0580  132.5860  147.6430 C   0  0  0  0  0  2  0  0  0  0  0  0
  133.0540  135.7730  148.3050 C   0  0  0  0  0  0  0  0  0  0  0  0
  133.7530  134.7550  147.6470 C   0  0  0  0  0  3  0  0  0  0  0  0
  134.3250  133.6870  148.3670 C   0  0  0  0  0  0  0  0  0  0  0  0
  134.2100  133.6670  149.7620 C   0  0  0  0  0  3  0  0  0  0  0  0
  133.5200  134.6800  150.4300 C   0  0  0  0  0  3  0  0  0  0  0  0
  132.9460  135.7210  149.7020 C   0  0  0  0  0  0  0  0  0  0  0  0
  133.1480  137.4610  146.6240 C   0  0  0  0  0  1  0  0  0  0  0  0
  132.4490  136.8380  147.6920 O   0  0  0  0  0  0  0  0  0  0  0  0
  132.2670  136.7130  150.3590 O   0  0  0  0  0  0  0  0  0  0  0  0
  132.7100  137.2490  150.9870 H   0  0  0  0  0  0  0  0  0  0  0  0
  135.2490  132.8940  146.2450 N   0  0  0  0  0  0  0  0  0  0  0  0
  135.8360  132.0010  145.3740 C   0  0  0  0  0  0  0  0  0  0  0  0
  136.1710  130.8630  145.6990 O   0  0  0  0  0  0  0  0  0  0  0  0
  134.9530  133.7680  145.9040 H   0  0  0  0  0  0  0  0  0  0  0  0
  136.0000  132.5260  143.9450 C   0  0  0  0  0  2  0  0  0  0  0  0
  136.7770  133.7190  143.9080 O   0  0  0  0  0  0  0  0  0  0  0  0
  137.6430  133.8070  142.7800 C   0  0  0  0  0  3  0  0  0  0  0  0
  137.0770  134.6010  141.6050 C   0  0  0  0  0  2  0  0  0  0  0  0
  137.7820  134.0550  140.3680 C   0  0  0  0  0  2  0  0  0  0  0  0
  138.3270  132.6830  140.7570 C   0  0  0  0  0  2  0  0  0  0  0  0
  137.8260  132.4200  142.1700 C   0  0  0  0  0  2  0  0  0  0  0  0
  1  4  1  0  0  0  0
  2  7  1  0  0  0  0
  3  2  2  0  0  0  0
  3  4  1  0  0  0  0
  4  5  2  0  0  0  0
  5  6  1  0  0  0  0
  7 10  1  0  0  0  0
  7  6  2  0  0  0  0
  8  9  1  0  0  0  0
  9  2  1  0  0  0  0
 10 11  1  0  0  0  0
 12  1  1  0  0  0  0
 13 14  2  0  0  0  0
 13 12  1  0  0  0  0
 15 12  1  0  0  0  0
 16 13  1  0  0  0  0
 17 16  1  0  0  0  0
 18 17  1  0  0  0  0
 19 18  1  0  0  0  0
 20 21  1  0  0  0  0
 20 19  1  0  0  0  0
 21 22  1  0  0  0  0
 22 18  1  0  0  0  0
M  END
>  <MODEL>
7

>  <REMARK>
 VINA RESULT:    -5.908     13.516     14.415
 INTER + INTRA:          -8.671
 INTER:                  -8.201
 INTRA:                  -0.470
 UNBOUND:                -0.518
  Name = CHEMBL3454557
  8 active torsions:
  status: ('A' for Active; 'I' for Inactive)
    1  A    between atoms: C_1  and  O_2
    2  A    between atoms: O_2  and  C_3
    3  A    between atoms: C_5  and  C_6
    4  A    between atoms: C_6  and  N_7
    5  A    between atoms: C_8  and  C_10
    6  A    between atoms: C_10  and  O_11
    7  A    between atoms: O_11  and  C_12
    8  A    between atoms: C_19  and  O_20
                            x       y       z     vdW  Elec       q    Type
                         _______ _______ _______ _____ _____    ______ ____

>  <TORSDO>
F 7

>  <SCORE>
-5.908

>  <RMSD_LB>
13.516

>  <RMSD_UB>
14.415

$$$$
CHEMBL3454557
 OpenBabel10162523553D

 22 23  0  0  0  0  0  0  0  0999 V2000
  138.6660  138.2780  151.5600 C   0  0  0  0  0  2  0  0  0  0  0  0
  141.1170  138.1200  154.4880 C   0  0  0  0  0  0  0  0  0  0  0  0
  139.9490  138.3090  153.7400 C   0  0  0  0  0  3  0  0  0  0  0  0
  139.9360  138.0900  152.3480 C   0  0  0  0  0  0  0  0  0  0  0  0
  141.1210  137.7040  151.7090 C   0  0  0  0  0  3  0  0  0  0  0  0
  142.2930  137.5180  152.4430 C   0  0  0  0  0  3  0  0  0  0  0  0
  142.2860  137.7230  153.8220 C   0  0  0  0  0  0  0  0  0  0  0  0
  140.4410  137.4370  156.6700 C   0  0  0  0  0  1  0  0  0  0  0  0
  141.2230  138.2880  155.8430 O   0  0  0  0  0  0  0  0  0  0  0  0
  143.4370  137.5360  154.5410 O   0  0  0  0  0  0  0  0  0  0  0  0
  143.3910  137.2700  155.4380 H   0  0  0  0  0  0  0  0  0  0  0  0
  137.7050  137.2340  151.8260 N   0  0  0  0  0  0  0  0  0  0  0  0
  136.9500  136.6630  150.8250 C   0  0  0  0  0  0  0  0  0  0  0  0
  137.0850  136.9430  149.6340 O   0  0  0  0  0  0  0  0  0  0  0  0
  137.5850  136.9210  152.7510 H   0  0  0  0  0  0  0  0  0  0  0  0
  135.9500  135.6090  151.3090 C   0  0  0  0  0  2  0  0  0  0  0  0
  134.7650  136.2060  151.8270 O   0  0  0  0  0  0  0  0  0  0  0  0
  134.3470  135.6640  153.0760 C   0  0  0  0  0  3  0  0  0  0  0  0
  135.2600  136.0000  154.2530 C   0  0  0  0  0  2  0  0  0  0  0  0
  135.0530  134.8760  155.2620 C   0  0  0  0  0  2  0  0  0  0  0  0
  134.4550  133.7060  154.4840 C   0  0  0  0  0  2  0  0  0  0  0  0
  134.4380  134.1410  153.0250 C   0  0  0  0  0  2  0  0  0  0  0  0
  1 12  1  0  0  0  0
  1  4  1  0  0  0  0
  2  9  1  0  0  0  0
  3  2  2  0  0  0  0
  4  3  1  0  0  0  0
  5  4  2  0  0  0  0
  5  6  1  0  0  0  0
  6  7  2  0  0  0  0
  7  2  1  0  0  0  0
  7 10  1  0  0  0  0
  9  8  1  0  0  0  0
 10 11  1  0  0  0  0
 12 15  1  0  0  0  0
 13 16  1  0  0  0  0
 13 12  1  0  0  0  0
 14 13  2  0  0  0  0
 16 17  1  0  0  0  0
 17 18  1  0  0  0  0
 18 19  1  0  0  0  0
 19 20  1  0  0  0  0
 21 20  1  0  0  0  0
 22 18  1  0  0  0  0
 22 21  1  0  0  0  0
M  END
>  <MODEL>
8

>  <REMARK>
 VINA RESULT:    -5.867      6.203      8.492
 INTER + INTRA:          -8.614
 INTER:                  -8.013
 INTRA:                  -0.601
 UNBOUND:                -0.518
  Name = CHEMBL3454557
  8 active torsions:
  status: ('A' for Active; 'I' for Inactive)
    1  A    between atoms: C_1  and  O_2
    2  A    between atoms: O_2  and  C_3
    3  A    between atoms: C_5  and  C_6
    4  A    between atoms: C_6  and  N_7
    5  A    between atoms: C_8  and  C_10
    6  A    between atoms: C_10  and  O_11
    7  A    between atoms: O_11  and  C_12
    8  A    between atoms: C_19  and  O_20
                            x       y       z     vdW  Elec       q    Type
                         _______ _______ _______ _____ _____    ______ ____

>  <TORSDO>
F 7

>  <SCORE>
-5.867

>  <RMSD_LB>
6.203

>  <RMSD_UB>
8.492

$$$$
CHEMBL3454557
 OpenBabel10162523553D

 22 23  0  0  0  0  0  0  0  0999 V2000
  146.9850  137.7990  146.9460 C   0  0  0  0  0  2  0  0  0  0  0  0
  150.6640  137.4250  145.9810 C   0  0  0  0  0  0  0  0  0  0  0  0
  149.4270  137.2310  146.6060 C   0  0  0  0  0  3  0  0  0  0  0  0
  148.3160  138.0340  146.2800 C   0  0  0  0  0  0  0  0  0  0  0  0
  148.4700  139.0560  145.3340 C   0  0  0  0  0  3  0  0  0  0  0  0
  149.7000  139.2640  144.7090 C   0  0  0  0  0  3  0  0  0  0  0  0
  150.7850  138.4500  145.0320 C   0  0  0  0  0  0  0  0  0  0  0  0
  152.0440  136.2860  147.5570 C   0  0  0  0  0  1  0  0  0  0  0  0
  151.7930  136.6850  146.2170 O   0  0  0  0  0  0  0  0  0  0  0  0
  151.9910  138.6520  144.4150 O   0  0  0  0  0  0  0  0  0  0  0  0
  152.0250  138.8220  143.4940 H   0  0  0  0  0  0  0  0  0  0  0  0
  146.8560  138.5460  148.1740 N   0  0  0  0  0  0  0  0  0  0  0  0
  146.0500  139.6600  148.2710 C   0  0  0  0  0  0  0  0  0  0  0  0
  145.3330  140.0570  147.3530 O   0  0  0  0  0  0  0  0  0  0  0  0
  147.3600  138.2520  148.9660 H   0  0  0  0  0  0  0  0  0  0  0  0
  146.0830  140.3490  149.6390 C   0  0  0  0  0  2  0  0  0  0  0  0
  147.3720  140.8810  149.9290 O   0  0  0  0  0  0  0  0  0  0  0  0
  147.3950  141.7470  151.0600 C   0  0  0  0  0  3  0  0  0  0  0  0
  148.3160  141.2930  152.1900 C   0  0  0  0  0  2  0  0  0  0  0  0
  147.7390  141.9110  153.4590 C   0  0  0  0  0  2  0  0  0  0  0  0
  146.2870  142.2630  153.1410 C   0  0  0  0  0  2  0  0  0  0  0  0
  146.0270  141.7350  151.7380 C   0  0  0  0  0  2  0  0  0  0  0  0
  1 12  1  0  0  0  0
  2  9  1  0  0  0  0
  2  3  1  0  0  0  0
  4  3  2  0  0  0  0
  4  1  1  0  0  0  0
  5  4  1  0  0  0  0
  6  7  1  0  0  0  0
  6  5  2  0  0  0  0
  7  2  2  0  0  0  0
  9  8  1  0  0  0  0
 10  7  1  0  0  0  0
 11 10  1  0  0  0  0
 12 13  1  0  0  0  0
 12 15  1  0  0  0  0
 13 16  1  0  0  0  0
 14 13  2  0  0  0  0
 16 17  1  0  0  0  0
 17 18  1  0  0  0  0
 18 22  1  0  0  0  0
 18 19  1  0  0  0  0
 19 20  1  0  0  0  0
 21 20  1  0  0  0  0
 22 21  1  0  0  0  0
M  END
>  <MODEL>
9

>  <REMARK>
 VINA RESULT:    -5.744      4.404      7.000
 INTER + INTRA:          -8.444
 INTER:                  -7.926
 INTRA:                  -0.518
 UNBOUND:                -0.518
  Name = CHEMBL3454557
  8 active torsions:
  status: ('A' for Active; 'I' for Inactive)
    1  A    between atoms: C_1  and  O_2
    2  A    between atoms: O_2  and  C_3
    3  A    between atoms: C_5  and  C_6
    4  A    between atoms: C_6  and  N_7
    5  A    between atoms: C_8  and  C_10
    6  A    between atoms: C_10  and  O_11
    7  A    between atoms: O_11  and  C_12
    8  A    between atoms: C_19  and  O_20
                            x       y       z     vdW  Elec       q    Type
                         _______ _______ _______ _____ _____    ______ ____

>  <TORSDO>
F 7

>  <SCORE>
-5.744

>  <RMSD_LB>
4.404

>  <RMSD_UB>
7.000

$$$$
