CHEMBL4127659
 OpenBabel10162523483D

 36 37  0  0  0  0  0  0  0  0999 V2000
  137.3250  137.5030  156.5220 C   0  0  0  0  0  0  0  0  0  0  0  0
  138.6870  137.8200  156.6970 C   0  0  0  0  0  3  0  0  0  0  0  0
  139.5760  137.9430  155.6050 C   0  0  0  0  0  0  0  0  0  0  0  0
  139.0570  137.7540  154.3280 C   0  0  0  0  0  3  0  0  0  0  0  0
  137.7070  137.4520  154.1380 C   0  0  0  0  0  3  0  0  0  0  0  0
  136.8230  137.3590  155.2260 C   0  0  0  0  0  0  0  0  0  0  0  0
  136.8790  136.1850  158.4330 C   0  0  0  0  0  1  0  0  0  0  0  0
  136.4980  137.2860  157.6050 O   0  0  0  0  0  0  0  0  0  0  0  0
  141.0310  138.2280  155.8510 C   0  0  0  0  0  2  0  0  0  0  0  0
  141.8870  137.5670  154.9010 N   0  0  0  0  0  0  0  0  0  0  0  0
  142.8610  138.2810  154.2250 C   0  0  0  0  0  0  0  0  0  0  0  0
  143.0250  139.5000  154.3290 O   0  0  0  0  0  0  0  0  0  0  0  0
  141.7790  136.6030  154.7310 H   0  0  0  0  0  0  0  0  0  0  0  0
  143.7040  137.4050  153.3050 C   0  0  0  0  0  2  0  0  0  0  0  0
  143.5570  137.7800  151.8330 C   0  0  0  0  0  2  0  0  0  0  0  0
  142.4390  136.9940  151.1420 C   0  0  0  0  0  2  0  0  0  0  0  0
  141.1600  137.8270  151.1100 C   0  0  0  0  0  2  0  0  0  0  0  0
  140.0120  137.0450  150.5420 C   0  0  0  0  0  3  0  0  0  0  0  0
  138.7390  137.4650  150.6020 C   0  0  0  0  0  3  0  0  0  0  0  0
  137.5780  136.6880  150.0470 C   0  0  0  0  0  3  0  0  0  0  0  0
  136.6530  137.6050  149.2460 C   0  0  0  0  0  1  0  0  0  0  0  0
  138.0690  135.5360  149.1720 C   0  0  0  0  0  1  0  0  0  0  0  0
  135.4720  136.9990  154.9570 O   0  0  0  0  0  0  0  0  0  0  0  0
  135.2240  135.6320  154.8410 C   0  0  0  0  0  0  0  0  0  0  0  0
  135.1570  134.8250  155.7630 O   0  0  0  0  0  0  0  0  0  0  0  0
  134.9770  135.1870  153.4390 C   0  0  0  0  0  0  0  0  0  0  0  0
  135.7860  134.2800  152.7540 C   0  0  0  0  0  3  0  0  0  0  0  0
  135.5330  134.0010  151.3930 C   0  0  0  0  0  3  0  0  0  0  0  0
  134.4700  134.6190  150.7030 C   0  0  0  0  0  0  0  0  0  0  0  0
  133.6690  135.5260  151.4020 C   0  0  0  0  0  3  0  0  0  0  0  0
  133.9310  135.8140  152.7500 C   0  0  0  0  0  3  0  0  0  0  0  0
  134.2050  134.3550  149.2510 C   0  0  0  0  0  0  0  0  0  0  0  0
  134.0440  132.8390  148.5600 S   0  0  0  0  0  0  0  0  0  0  0  0
  134.0890  135.4480  148.4170 N   0  0  0  0  0  0  0  0  0  0  0  0
  134.8750  135.7750  147.9210 H   0  0  0  0  0  0  0  0  0  0  0  0
  133.2210  135.9010  148.3160 H   0  0  0  0  0  0  0  0  0  0  0  0
  1  2  1  0  0  0  0
  1  8  1  0  0  0  0
  3  9  1  0  0  0  0
  3  2  2  0  0  0  0
  4  3  1  0  0  0  0
  5  4  2  0  0  0  0
  5  6  1  0  0  0  0
  6  1  2  0  0  0  0
  8  7  1  0  0  0  0
 10  9  1  0  0  0  0
 11 12  2  0  0  0  0
 11 10  1  0  0  0  0
 13 10  1  0  0  0  0
 14 11  1  0  0  0  0
 15 14  1  0  0  0  0
 16 15  1  0  0  0  0
 17 16  1  0  0  0  0
 18 19  2  0  0  0  0
 18 17  1  0  0  0  0
 20 19  1  0  0  0  0
 21 20  1  0  0  0  0
 22 20  1  0  0  0  0
 23  6  1  0  0  0  0
 24 23  1  0  0  0  0
 24 25  2  0  0  0  0
 26 24  1  0  0  0  0
 27 26  1  0  0  0  0
 28 27  2  0  0  0  0
 29 28  1  0  0  0  0
 29 30  2  0  0  0  0
 30 31  1  0  0  0  0
 31 26  2  0  0  0  0
 32 29  1  0  0  0  0
 33 32  2  0  0  0  0
 34 32  1  0  0  0  0
 35 34  1  0  0  0  0
 36 34  1  0  0  0  0
M  END
>  <MODEL>
1

>  <REMARK>
 VINA RESULT:    -7.450      0.000      0.000
 INTER + INTRA:         -15.967
 INTER:                 -12.942
 INTRA:                  -3.025
 UNBOUND:                -2.638
  Name = CHEMBL4127659
  17 active torsions:
  status: ('A' for Active; 'I' for Inactive)
    1  A    between atoms: C_1  and  O_2
    2  A    between atoms: O_2  and  C_3
    3  A    between atoms: C_5  and  C_6
    4  A    between atoms: C_6  and  N_7
    5  A    between atoms: C_8  and  C_10
    6  A    between atoms: C_10  and  C_11
    7  A    between atoms: C_11  and  C_12
    8  A    between atoms: C_12  and  C_13
    9  A    between atoms: C_13  and  C_14
   10  A    between atoms: C_15  and  C_16
   11  A    between atoms: C_16  and  C_17
   12  A    between atoms: C_16  and  C_18
   13  A    between atoms: C_21  and  O_22
   14  A    between atoms: O_22  and  C_23
   15  A    between atoms: C_23  and  C_25
   16  A    between atoms: C_28  and  C_29
   17  A    between atoms: C_29  and  N_30
                            x       y       z     vdW  Elec       q    Type
                         _______ _______ _______ _____ _____    ______ ____

>  <TORSDO>
F 14

>  <SCORE>
-7.450

>  <RMSD_LB>
0.000

>  <RMSD_UB>
0.000

$$$$
CHEMBL4127659
 OpenBabel10162523483D

 36 37  0  0  0  0  0  0  0  0999 V2000
  135.7500  135.9200  156.4180 C   0  0  0  0  0  0  0  0  0  0  0  0
  137.0190  136.3820  156.8220 C   0  0  0  0  0  3  0  0  0  0  0  0
  137.9470  136.9270  155.9050 C   0  0  0  0  0  0  0  0  0  0  0  0
  137.5600  137.0110  154.5710 C   0  0  0  0  0  3  0  0  0  0  0  0
  136.3010  136.5680  154.1580 C   0  0  0  0  0  3  0  0  0  0  0  0
  135.3740  136.0530  155.0790 C   0  0  0  0  0  0  0  0  0  0  0  0
  135.5390  134.7900  158.4840 C   0  0  0  0  0  1  0  0  0  0  0  0
  134.9010  135.2970  157.3100 O   0  0  0  0  0  0  0  0  0  0  0  0
  139.3070  137.3550  156.3790 C   0  0  0  0  0  2  0  0  0  0  0  0
  140.2760  137.3800  155.3140 N   0  0  0  0  0  0  0  0  0  0  0  0
  140.5990  138.5750  154.6940 C   0  0  0  0  0  0  0  0  0  0  0  0
  140.0620  139.6570  154.9500 O   0  0  0  0  0  0  0  0  0  0  0  0
  140.7090  136.5450  155.0250 H   0  0  0  0  0  0  0  0  0  0  0  0
  141.6810  138.4150  153.6310 C   0  0  0  0  0  2  0  0  0  0  0  0
  141.2560  137.4950  152.4900 C   0  0  0  0  0  2  0  0  0  0  0  0
  140.6220  138.2660  151.3290 C   0  0  0  0  0  2  0  0  0  0  0  0
  139.1740  138.6150  151.6650 C   0  0  0  0  0  2  0  0  0  0  0  0
  138.2120  137.7950  150.8550 C   0  0  0  0  0  3  0  0  0  0  0  0
  138.5850  136.7220  150.1410 C   0  0  0  0  0  3  0  0  0  0  0  0
  137.6350  135.8980  149.3170 C   0  0  0  0  0  3  0  0  0  0  0  0
  138.3740  135.2220  148.1620 C   0  0  0  0  0  1  0  0  0  0  0  0
  136.9380  134.8510  150.1840 C   0  0  0  0  0  1  0  0  0  0  0  0
  134.1310  135.5780  154.5760 O   0  0  0  0  0  0  0  0  0  0  0  0
  134.1990  134.4310  153.7860 C   0  0  0  0  0  0  0  0  0  0  0  0
  134.4190  133.2890  154.1790 O   0  0  0  0  0  0  0  0  0  0  0  0
  133.9200  134.6820  152.3420 C   0  0  0  0  0  0  0  0  0  0  0  0
  133.7230  135.9500  151.7950 C   0  0  0  0  0  3  0  0  0  0  0  0
  133.3580  136.0820  150.4370 C   0  0  0  0  0  3  0  0  0  0  0  0
  133.1900  134.9510  149.6110 C   0  0  0  0  0  0  0  0  0  0  0  0
  133.3890  133.6870  150.1740 C   0  0  0  0  0  3  0  0  0  0  0  0
  133.7360  133.5580  151.5270 C   0  0  0  0  0  3  0  0  0  0  0  0
  132.7750  135.0700  148.1760 C   0  0  0  0  0  0  0  0  0  0  0  0
  132.6960  136.5020  147.3110 S   0  0  0  0  0  0  0  0  0  0  0  0
  132.4260  133.9100  147.5150 N   0  0  0  0  0  0  0  0  0  0  0  0
  131.7710  133.2940  147.9150 H   0  0  0  0  0  0  0  0  0  0  0  0
  132.8330  133.6990  146.6440 H   0  0  0  0  0  0  0  0  0  0  0  0
  1  2  1  0  0  0  0
  1  8  1  0  0  0  0
  3  9  1  0  0  0  0
  3  2  2  0  0  0  0
  4  3  1  0  0  0  0
  5  4  2  0  0  0  0
  5  6  1  0  0  0  0
  6  1  2  0  0  0  0
  8  7  1  0  0  0  0
 10  9  1  0  0  0  0
 11 12  2  0  0  0  0
 11 10  1  0  0  0  0
 13 10  1  0  0  0  0
 14 11  1  0  0  0  0
 15 14  1  0  0  0  0
 16 17  1  0  0  0  0
 16 15  1  0  0  0  0
 18 17  1  0  0  0  0
 19 18  2  0  0  0  0
 20 19  1  0  0  0  0
 20 22  1  0  0  0  0
 21 20  1  0  0  0  0
 23  6  1  0  0  0  0
 24 25  2  0  0  0  0
 24 23  1  0  0  0  0
 26 24  1  0  0  0  0
 27 26  1  0  0  0  0
 28 27  2  0  0  0  0
 29 30  2  0  0  0  0
 29 28  1  0  0  0  0
 30 31  1  0  0  0  0
 31 26  2  0  0  0  0
 32 29  1  0  0  0  0
 33 32  2  0  0  0  0
 34 35  1  0  0  0  0
 34 32  1  0  0  0  0
 36 34  1  0  0  0  0
M  END
>  <MODEL>
2

>  <REMARK>
 VINA RESULT:    -7.379      1.723      2.260
 INTER + INTRA:         -15.840
 INTER:                 -13.292
 INTRA:                  -2.548
 UNBOUND:                -2.638
  Name = CHEMBL4127659
  17 active torsions:
  status: ('A' for Active; 'I' for Inactive)
    1  A    between atoms: C_1  and  O_2
    2  A    between atoms: O_2  and  C_3
    3  A    between atoms: C_5  and  C_6
    4  A    between atoms: C_6  and  N_7
    5  A    between atoms: C_8  and  C_10
    6  A    between atoms: C_10  and  C_11
    7  A    between atoms: C_11  and  C_12
    8  A    between atoms: C_12  and  C_13
    9  A    between atoms: C_13  and  C_14
   10  A    between atoms: C_15  and  C_16
   11  A    between atoms: C_16  and  C_17
   12  A    between atoms: C_16  and  C_18
   13  A    between atoms: C_21  and  O_22
   14  A    between atoms: O_22  and  C_23
   15  A    between atoms: C_23  and  C_25
   16  A    between atoms: C_28  and  C_29
   17  A    between atoms: C_29  and  N_30
                            x       y       z     vdW  Elec       q    Type
                         _______ _______ _______ _____ _____    ______ ____

>  <TORSDO>
F 14

>  <SCORE>
-7.379

>  <RMSD_LB>
1.723

>  <RMSD_UB>
2.260

$$$$
CHEMBL4127659
 OpenBabel10162523483D

 36 37  0  0  0  0  0  0  0  0999 V2000
  134.7240  135.4830  154.4790 C   0  0  0  0  0  0  0  0  0  0  0  0
  133.7180  135.2530  153.5190 C   0  0  0  0  0  3  0  0  0  0  0  0
  133.9390  135.4510  152.1370 C   0  0  0  0  0  0  0  0  0  0  0  0
  135.2050  135.8710  151.7410 C   0  0  0  0  0  3  0  0  0  0  0  0
  136.2160  136.0910  152.6800 C   0  0  0  0  0  3  0  0  0  0  0  0
  135.9970  135.8660  154.0490 C   0  0  0  0  0  0  0  0  0  0  0  0
  134.3870  134.0450  156.3240 C   0  0  0  0  0  1  0  0  0  0  0  0
  134.4580  135.3840  155.8290 O   0  0  0  0  0  0  0  0  0  0  0  0
  132.8160  135.2440  151.1600 C   0  0  0  0  0  2  0  0  0  0  0  0
  133.2720  135.2310  149.7950 N   0  0  0  0  0  0  0  0  0  0  0  0
  133.0280  136.3140  148.9680 C   0  0  0  0  0  0  0  0  0  0  0  0
  132.3740  137.3080  149.3010 O   0  0  0  0  0  0  0  0  0  0  0  0
  133.7580  134.4490  149.4470 H   0  0  0  0  0  0  0  0  0  0  0  0
  133.6320  136.1440  147.5780 C   0  0  0  0  0  2  0  0  0  0  0  0
  134.0780  134.7110  147.3000 C   0  0  0  0  0  2  0  0  0  0  0  0
  135.5770  134.6180  147.0000 C   0  0  0  0  0  2  0  0  0  0  0  0
  136.3240  134.1180  148.2330 C   0  0  0  0  0  2  0  0  0  0  0  0
  137.3920  135.0860  148.6560 C   0  0  0  0  0  3  0  0  0  0  0  0
  137.1990  136.4130  148.7040 C   0  0  0  0  0  3  0  0  0  0  0  0
  138.2600  137.3940  149.1140 C   0  0  0  0  0  3  0  0  0  0  0  0
  137.6260  138.6590  149.6950 C   0  0  0  0  0  1  0  0  0  0  0  0
  139.2130  136.7650  150.1300 C   0  0  0  0  0  1  0  0  0  0  0  0
  137.0600  136.1590  154.9490 O   0  0  0  0  0  0  0  0  0  0  0  0
  137.3380  137.5130  155.1340 C   0  0  0  0  0  0  0  0  0  0  0  0
  136.5610  138.3630  155.5590 O   0  0  0  0  0  0  0  0  0  0  0  0
  138.7460  137.8830  154.8110 C   0  0  0  0  0  0  0  0  0  0  0  0
  139.2040  138.1610  153.5220 C   0  0  0  0  0  3  0  0  0  0  0  0
  140.5780  138.3980  153.3000 C   0  0  0  0  0  3  0  0  0  0  0  0
  141.5080  138.3640  154.3590 C   0  0  0  0  0  0  0  0  0  0  0  0
  141.0350  138.0830  155.6440 C   0  0  0  0  0  3  0  0  0  0  0  0
  139.6720  137.8330  155.8610 C   0  0  0  0  0  3  0  0  0  0  0  0
  142.9740  138.5850  154.1370 C   0  0  0  0  0  0  0  0  0  0  0  0
  144.0190  137.4850  153.4290 S   0  0  0  0  0  0  0  0  0  0  0  0
  143.5070  139.7880  154.5520 N   0  0  0  0  0  0  0  0  0  0  0  0
  144.1850  139.8060  155.2660 H   0  0  0  0  0  0  0  0  0  0  0  0
  143.2100  140.6290  154.1350 H   0  0  0  0  0  0  0  0  0  0  0  0
  1  8  1  0  0  0  0
  2  1  2  0  0  0  0
  3  2  1  0  0  0  0
  4  3  2  0  0  0  0
  4  5  1  0  0  0  0
  5  6  2  0  0  0  0
  6  1  1  0  0  0  0
  6 23  1  0  0  0  0
  8  7  1  0  0  0  0
  9  3  1  0  0  0  0
 10  9  1  0  0  0  0
 11 12  2  0  0  0  0
 11 10  1  0  0  0  0
 13 10  1  0  0  0  0
 14 11  1  0  0  0  0
 15 14  1  0  0  0  0
 16 15  1  0  0  0  0
 16 17  1  0  0  0  0
 17 18  1  0  0  0  0
 18 19  2  0  0  0  0
 19 20  1  0  0  0  0
 20 21  1  0  0  0  0
 20 22  1  0  0  0  0
 23 24  1  0  0  0  0
 24 25  2  0  0  0  0
 26 24  1  0  0  0  0
 26 31  1  0  0  0  0
 27 26  2  0  0  0  0
 28 27  1  0  0  0  0
 28 29  2  0  0  0  0
 29 30  1  0  0  0  0
 30 31  2  0  0  0  0
 32 29  1  0  0  0  0
 32 34  1  0  0  0  0
 33 32  2  0  0  0  0
 34 35  1  0  0  0  0
 36 34  1  0  0  0  0
M  END
>  <MODEL>
3

>  <REMARK>
 VINA RESULT:    -7.328      2.890      7.345
 INTER + INTRA:         -15.748
 INTER:                 -12.834
 INTRA:                  -2.914
 UNBOUND:                -2.638
  Name = CHEMBL4127659
  17 active torsions:
  status: ('A' for Active; 'I' for Inactive)
    1  A    between atoms: C_1  and  O_2
    2  A    between atoms: O_2  and  C_3
    3  A    between atoms: C_5  and  C_6
    4  A    between atoms: C_6  and  N_7
    5  A    between atoms: C_8  and  C_10
    6  A    between atoms: C_10  and  C_11
    7  A    between atoms: C_11  and  C_12
    8  A    between atoms: C_12  and  C_13
    9  A    between atoms: C_13  and  C_14
   10  A    between atoms: C_15  and  C_16
   11  A    between atoms: C_16  and  C_17
   12  A    between atoms: C_16  and  C_18
   13  A    between atoms: C_21  and  O_22
   14  A    between atoms: O_22  and  C_23
   15  A    between atoms: C_23  and  C_25
   16  A    between atoms: C_28  and  C_29
   17  A    between atoms: C_29  and  N_30
                            x       y       z     vdW  Elec       q    Type
                         _______ _______ _______ _____ _____    ______ ____

>  <TORSDO>
F 14

>  <SCORE>
-7.328

>  <RMSD_LB>
2.890

>  <RMSD_UB>
7.345

$$$$
CHEMBL4127659
 OpenBabel10162523483D

 36 37  0  0  0  0  0  0  0  0999 V2000
  135.1160  134.9470  154.9770 C   0  0  0  0  0  0  0  0  0  0  0  0
  135.8730  135.8710  155.7250 C   0  0  0  0  0  3  0  0  0  0  0  0
  136.8100  136.7390  155.1210 C   0  0  0  0  0  0  0  0  0  0  0  0
  136.9570  136.6670  153.7390 C   0  0  0  0  0  3  0  0  0  0  0  0
  136.2050  135.7650  152.9830 C   0  0  0  0  0  3  0  0  0  0  0  0
  135.2550  134.9250  153.5860 C   0  0  0  0  0  0  0  0  0  0  0  0
  133.9480  134.3650  156.9470 C   0  0  0  0  0  1  0  0  0  0  0  0
  134.2830  134.0390  155.5960 O   0  0  0  0  0  0  0  0  0  0  0  0
  137.6310  137.6670  155.9720 C   0  0  0  0  0  2  0  0  0  0  0  0
  138.7420  138.2330  155.2520 N   0  0  0  0  0  0  0  0  0  0  0  0
  140.0290  138.1120  155.7470 C   0  0  0  0  0  0  0  0  0  0  0  0
  140.3090  137.5870  156.8290 O   0  0  0  0  0  0  0  0  0  0  0  0
  138.5850  138.7100  154.4040 H   0  0  0  0  0  0  0  0  0  0  0  0
  141.0760  138.7230  154.8240 C   0  0  0  0  0  2  0  0  0  0  0  0
  141.6810  137.7060  153.8600 C   0  0  0  0  0  2  0  0  0  0  0  0
  142.7280  138.3330  152.9350 C   0  0  0  0  0  2  0  0  0  0  0  0
  142.3530  138.0790  151.4770 C   0  0  0  0  0  2  0  0  0  0  0  0
  140.9920  137.4530  151.3640 C   0  0  0  0  0  3  0  0  0  0  0  0
  140.3910  137.2180  150.1880 C   0  0  0  0  0  3  0  0  0  0  0  0
  139.0250  136.6030  150.0590 C   0  0  0  0  0  3  0  0  0  0  0  0
  137.9400  137.6660  150.2280 C   0  0  0  0  0  1  0  0  0  0  0  0
  138.8750  135.9030  148.7080 C   0  0  0  0  0  1  0  0  0  0  0  0
  134.5630  134.0000  152.7560 O   0  0  0  0  0  0  0  0  0  0  0  0
  133.9350  134.5460  151.6370 C   0  0  0  0  0  0  0  0  0  0  0  0
  133.0430  135.3890  151.6430 O   0  0  0  0  0  0  0  0  0  0  0  0
  134.4850  134.0490  150.3420 C   0  0  0  0  0  0  0  0  0  0  0  0
  135.3980  134.7560  149.5590 C   0  0  0  0  0  3  0  0  0  0  0  0
  135.7800  134.2530  148.2970 C   0  0  0  0  0  3  0  0  0  0  0  0
  135.2590  133.0390  147.8040 C   0  0  0  0  0  0  0  0  0  0  0  0
  134.3440  132.3430  148.5980 C   0  0  0  0  0  3  0  0  0  0  0  0
  133.9540  132.8520  149.8460 C   0  0  0  0  0  3  0  0  0  0  0  0
  135.6310  132.5040  146.4540 C   0  0  0  0  0  0  0  0  0  0  0  0
  135.0760  133.1040  144.9920 S   0  0  0  0  0  0  0  0  0  0  0  0
  136.4960  131.4300  146.4100 N   0  0  0  0  0  0  0  0  0  0  0  0
  136.6220  130.9340  145.5690 H   0  0  0  0  0  0  0  0  0  0  0  0
  136.9870  131.1600  147.2190 H   0  0  0  0  0  0  0  0  0  0  0  0
  1  8  1  0  0  0  0
  1  2  1  0  0  0  0
  3  2  2  0  0  0  0
  3  9  1  0  0  0  0
  4  3  1  0  0  0  0
  5  6  1  0  0  0  0
  5  4  2  0  0  0  0
  6  1  2  0  0  0  0
  8  7  1  0  0  0  0
 10 11  1  0  0  0  0
 10  9  1  0  0  0  0
 11 12  2  0  0  0  0
 13 10  1  0  0  0  0
 14 11  1  0  0  0  0
 15 14  1  0  0  0  0
 16 15  1  0  0  0  0
 17 16  1  0  0  0  0
 18 17  1  0  0  0  0
 19 18  2  0  0  0  0
 20 19  1  0  0  0  0
 20 21  1  0  0  0  0
 22 20  1  0  0  0  0
 23  6  1  0  0  0  0
 24 25  2  0  0  0  0
 24 23  1  0  0  0  0
 26 24  1  0  0  0  0
 27 26  2  0  0  0  0
 28 27  1  0  0  0  0
 29 28  2  0  0  0  0
 29 30  1  0  0  0  0
 30 31  2  0  0  0  0
 31 26  1  0  0  0  0
 32 29  1  0  0  0  0
 33 32  2  0  0  0  0
 34 32  1  0  0  0  0
 34 36  1  0  0  0  0
 35 34  1  0  0  0  0
M  END
>  <MODEL>
4

>  <REMARK>
 VINA RESULT:    -7.283      2.147      3.302
 INTER + INTRA:         -15.669
 INTER:                 -13.492
 INTRA:                  -2.177
 UNBOUND:                -2.638
  Name = CHEMBL4127659
  17 active torsions:
  status: ('A' for Active; 'I' for Inactive)
    1  A    between atoms: C_1  and  O_2
    2  A    between atoms: O_2  and  C_3
    3  A    between atoms: C_5  and  C_6
    4  A    between atoms: C_6  and  N_7
    5  A    between atoms: C_8  and  C_10
    6  A    between atoms: C_10  and  C_11
    7  A    between atoms: C_11  and  C_12
    8  A    between atoms: C_12  and  C_13
    9  A    between atoms: C_13  and  C_14
   10  A    between atoms: C_15  and  C_16
   11  A    between atoms: C_16  and  C_17
   12  A    between atoms: C_16  and  C_18
   13  A    between atoms: C_21  and  O_22
   14  A    between atoms: O_22  and  C_23
   15  A    between atoms: C_23  and  C_25
   16  A    between atoms: C_28  and  C_29
   17  A    between atoms: C_29  and  N_30
                            x       y       z     vdW  Elec       q    Type
                         _______ _______ _______ _____ _____    ______ ____

>  <TORSDO>
F 14

>  <SCORE>
-7.283

>  <RMSD_LB>
2.147

>  <RMSD_UB>
3.302

$$$$
CHEMBL4127659
 OpenBabel10162523483D

 36 37  0  0  0  0  0  0  0  0999 V2000
  141.0170  138.8030  154.5350 C   0  0  0  0  0  0  0  0  0  0  0  0
  142.2360  139.2890  155.0500 C   0  0  0  0  0  3  0  0  0  0  0  0
  143.4630  139.1080  154.3740 C   0  0  0  0  0  0  0  0  0  0  0  0
  143.4340  138.4370  153.1560 C   0  0  0  0  0  3  0  0  0  0  0  0
  142.2330  137.9600  152.6260 C   0  0  0  0  0  3  0  0  0  0  0  0
  141.0130  138.1680  153.2900 C   0  0  0  0  0  0  0  0  0  0  0  0
  139.6000  137.8030  156.1400 C   0  0  0  0  0  1  0  0  0  0  0  0
  139.8470  138.9000  155.2580 O   0  0  0  0  0  0  0  0  0  0  0  0
  144.7410  139.5980  154.9950 C   0  0  0  0  0  2  0  0  0  0  0  0
  145.2710  140.7530  154.3190 N   0  0  0  0  0  0  0  0  0  0  0  0
  146.6310  140.8610  154.0840 C   0  0  0  0  0  0  0  0  0  0  0  0
  147.4690  140.0420  154.4740 O   0  0  0  0  0  0  0  0  0  0  0  0
  144.6650  141.4700  154.0220 H   0  0  0  0  0  0  0  0  0  0  0  0
  146.9990  142.1220  153.3100 C   0  0  0  0  0  2  0  0  0  0  0  0
  147.9220  141.8410  152.1280 C   0  0  0  0  0  2  0  0  0  0  0  0
  147.3590  142.3810  150.8100 C   0  0  0  0  0  2  0  0  0  0  0  0
  145.8330  142.3750  150.8560 C   0  0  0  0  0  2  0  0  0  0  0  0
  145.2680  141.1890  150.1290 C   0  0  0  0  0  3  0  0  0  0  0  0
  143.9960  140.7850  150.2650 C   0  0  0  0  0  3  0  0  0  0  0  0
  143.4200  139.5930  149.5530 C   0  0  0  0  0  3  0  0  0  0  0  0
  141.9100  139.7560  149.3710 C   0  0  0  0  0  1  0  0  0  0  0  0
  144.0970  139.3950  148.1970 C   0  0  0  0  0  1  0  0  0  0  0  0
  139.8380  137.6110  152.7120 O   0  0  0  0  0  0  0  0  0  0  0  0
  139.1400  138.4460  151.8400 C   0  0  0  0  0  0  0  0  0  0  0  0
  139.3720  139.6320  151.6280 O   0  0  0  0  0  0  0  0  0  0  0  0
  138.0520  137.7520  151.0910 C   0  0  0  0  0  0  0  0  0  0  0  0
  137.6930  138.0550  149.7770 C   0  0  0  0  0  3  0  0  0  0  0  0
  136.5800  137.4180  149.1870 C   0  0  0  0  0  3  0  0  0  0  0  0
  135.8170  136.4690  149.8990 C   0  0  0  0  0  0  0  0  0  0  0  0
  136.1880  136.1770  151.2140 C   0  0  0  0  0  3  0  0  0  0  0  0
  137.2850  136.8230  151.8040 C   0  0  0  0  0  3  0  0  0  0  0  0
  134.6150  135.8040  149.2980 C   0  0  0  0  0  0  0  0  0  0  0  0
  133.2350  136.5960  148.7750 S   0  0  0  0  0  0  0  0  0  0  0  0
  134.6450  134.4310  149.1690 N   0  0  0  0  0  0  0  0  0  0  0  0
  133.8260  133.9050  149.3180 H   0  0  0  0  0  0  0  0  0  0  0  0
  135.4840  133.9770  148.9280 H   0  0  0  0  0  0  0  0  0  0  0  0
  1  2  1  0  0  0  0
  1  8  1  0  0  0  0
  3  9  1  0  0  0  0
  3  2  2  0  0  0  0
  4  3  1  0  0  0  0
  5  4  2  0  0  0  0
  5  6  1  0  0  0  0
  6  1  2  0  0  0  0
  8  7  1  0  0  0  0
 10  9  1  0  0  0  0
 11 10  1  0  0  0  0
 11 12  2  0  0  0  0
 13 10  1  0  0  0  0
 14 11  1  0  0  0  0
 15 14  1  0  0  0  0
 16 17  1  0  0  0  0
 16 15  1  0  0  0  0
 18 19  2  0  0  0  0
 18 17  1  0  0  0  0
 20 19  1  0  0  0  0
 21 20  1  0  0  0  0
 22 20  1  0  0  0  0
 23  6  1  0  0  0  0
 24 23  1  0  0  0  0
 25 24  2  0  0  0  0
 26 31  1  0  0  0  0
 26 24  1  0  0  0  0
 27 26  2  0  0  0  0
 28 27  1  0  0  0  0
 28 29  2  0  0  0  0
 29 30  1  0  0  0  0
 30 31  2  0  0  0  0
 32 29  1  0  0  0  0
 33 32  2  0  0  0  0
 34 32  1  0  0  0  0
 34 35  1  0  0  0  0
 36 34  1  0  0  0  0
M  END
>  <MODEL>
5

>  <REMARK>
 VINA RESULT:    -7.278      3.289      5.033
 INTER + INTRA:         -15.660
 INTER:                 -13.654
 INTRA:                  -2.005
 UNBOUND:                -2.638
  Name = CHEMBL4127659
  17 active torsions:
  status: ('A' for Active; 'I' for Inactive)
    1  A    between atoms: C_1  and  O_2
    2  A    between atoms: O_2  and  C_3
    3  A    between atoms: C_5  and  C_6
    4  A    between atoms: C_6  and  N_7
    5  A    between atoms: C_8  and  C_10
    6  A    between atoms: C_10  and  C_11
    7  A    between atoms: C_11  and  C_12
    8  A    between atoms: C_12  and  C_13
    9  A    between atoms: C_13  and  C_14
   10  A    between atoms: C_15  and  C_16
   11  A    between atoms: C_16  and  C_17
   12  A    between atoms: C_16  and  C_18
   13  A    between atoms: C_21  and  O_22
   14  A    between atoms: O_22  and  C_23
   15  A    between atoms: C_23  and  C_25
   16  A    between atoms: C_28  and  C_29
   17  A    between atoms: C_29  and  N_30
                            x       y       z     vdW  Elec       q    Type
                         _______ _______ _______ _____ _____    ______ ____

>  <TORSDO>
F 14

>  <SCORE>
-7.278

>  <RMSD_LB>
3.289

>  <RMSD_UB>
5.033

$$$$
CHEMBL4127659
 OpenBabel10162523483D

 36 37  0  0  0  0  0  0  0  0999 V2000
  138.1990  137.2610  150.4200 C   0  0  0  0  0  0  0  0  0  0  0  0
  137.7800  137.3850  151.7600 C   0  0  0  0  0  3  0  0  0  0  0  0
  138.6910  137.6240  152.8130 C   0  0  0  0  0  0  0  0  0  0  0  0
  140.0370  137.7520  152.4840 C   0  0  0  0  0  3  0  0  0  0  0  0
  140.4660  137.6440  151.1590 C   0  0  0  0  0  3  0  0  0  0  0  0
  139.5520  137.4340  150.1140 C   0  0  0  0  0  0  0  0  0  0  0  0
  136.6410  138.0390  148.8220 C   0  0  0  0  0  1  0  0  0  0  0  0
  137.3090  136.9260  149.4210 O   0  0  0  0  0  0  0  0  0  0  0  0
  138.1980  137.6930  154.2310 C   0  0  0  0  0  2  0  0  0  0  0  0
  136.9590  136.9840  154.4160 N   0  0  0  0  0  0  0  0  0  0  0  0
  136.8230  136.0740  155.4510 C   0  0  0  0  0  0  0  0  0  0  0  0
  137.7330  135.7660  156.2260 O   0  0  0  0  0  0  0  0  0  0  0  0
  136.2050  137.1450  153.8030 H   0  0  0  0  0  0  0  0  0  0  0  0
  135.4270  135.4650  155.5220 C   0  0  0  0  0  2  0  0  0  0  0  0
  134.6630  135.5830  154.2060 C   0  0  0  0  0  2  0  0  0  0  0  0
  134.6680  134.2730  153.4120 C   0  0  0  0  0  2  0  0  0  0  0  0
  135.9090  134.2060  152.5260 C   0  0  0  0  0  2  0  0  0  0  0  0
  135.5390  134.1350  151.0720 C   0  0  0  0  0  3  0  0  0  0  0  0
  134.3790  133.6190  150.6370 C   0  0  0  0  0  3  0  0  0  0  0  0
  134.0000  133.5300  149.1850 C   0  0  0  0  0  3  0  0  0  0  0  0
  134.4610  132.1980  148.5910 C   0  0  0  0  0  1  0  0  0  0  0  0
  132.4910  133.6930  149.0110 C   0  0  0  0  0  1  0  0  0  0  0  0
  140.0700  137.2870  148.7960 O   0  0  0  0  0  0  0  0  0  0  0  0
  140.5190  136.0090  148.4640 C   0  0  0  0  0  0  0  0  0  0  0  0
  141.6420  135.5580  148.6660 O   0  0  0  0  0  0  0  0  0  0  0  0
  139.4660  135.1470  147.8530 C   0  0  0  0  0  0  0  0  0  0  0  0
  139.0000  133.9610  148.4220 C   0  0  0  0  0  3  0  0  0  0  0  0
  138.0790  133.1570  147.7170 C   0  0  0  0  0  3  0  0  0  0  0  0
  137.6090  133.5290  146.4400 C   0  0  0  0  0  0  0  0  0  0  0  0
  138.0850  134.7190  145.8820 C   0  0  0  0  0  3  0  0  0  0  0  0
  139.0130  135.5090  146.5780 C   0  0  0  0  0  3  0  0  0  0  0  0
  136.6520  132.6740  145.6650 C   0  0  0  0  0  0  0  0  0  0  0  0
  135.4190  133.2460  144.6880 S   0  0  0  0  0  0  0  0  0  0  0  0
  136.7950  131.3050  145.7690 N   0  0  0  0  0  0  0  0  0  0  0  0
  137.6540  130.8810  145.5400 H   0  0  0  0  0  0  0  0  0  0  0  0
  136.0390  130.7530  146.0710 H   0  0  0  0  0  0  0  0  0  0  0  0
  1  2  1  0  0  0  0
  2  3  2  0  0  0  0
  3  9  1  0  0  0  0
  4  3  1  0  0  0  0
  5  4  2  0  0  0  0
  6  1  2  0  0  0  0
  6  5  1  0  0  0  0
  7  8  1  0  0  0  0
  8  1  1  0  0  0  0
  9 10  1  0  0  0  0
 10 11  1  0  0  0  0
 11 14  1  0  0  0  0
 11 12  2  0  0  0  0
 13 10  1  0  0  0  0
 15 14  1  0  0  0  0
 16 15  1  0  0  0  0
 17 16  1  0  0  0  0
 18 17  1  0  0  0  0
 19 18  2  0  0  0  0
 20 19  1  0  0  0  0
 21 20  1  0  0  0  0
 22 20  1  0  0  0  0
 23  6  1  0  0  0  0
 24 25  2  0  0  0  0
 24 23  1  0  0  0  0
 26 27  1  0  0  0  0
 26 24  1  0  0  0  0
 28 27  2  0  0  0  0
 29 28  1  0  0  0  0
 30 29  2  0  0  0  0
 30 31  1  0  0  0  0
 31 26  2  0  0  0  0
 32 34  1  0  0  0  0
 32 29  1  0  0  0  0
 33 32  2  0  0  0  0
 34 36  1  0  0  0  0
 35 34  1  0  0  0  0
M  END
>  <MODEL>
6

>  <REMARK>
 VINA RESULT:    -7.202      3.040      6.486
 INTER + INTRA:         -15.523
 INTER:                 -13.002
 INTRA:                  -2.521
 UNBOUND:                -2.638
  Name = CHEMBL4127659
  17 active torsions:
  status: ('A' for Active; 'I' for Inactive)
    1  A    between atoms: C_1  and  O_2
    2  A    between atoms: O_2  and  C_3
    3  A    between atoms: C_5  and  C_6
    4  A    between atoms: C_6  and  N_7
    5  A    between atoms: C_8  and  C_10
    6  A    between atoms: C_10  and  C_11
    7  A    between atoms: C_11  and  C_12
    8  A    between atoms: C_12  and  C_13
    9  A    between atoms: C_13  and  C_14
   10  A    between atoms: C_15  and  C_16
   11  A    between atoms: C_16  and  C_17
   12  A    between atoms: C_16  and  C_18
   13  A    between atoms: C_21  and  O_22
   14  A    between atoms: O_22  and  C_23
   15  A    between atoms: C_23  and  C_25
   16  A    between atoms: C_28  and  C_29
   17  A    between atoms: C_29  and  N_30
                            x       y       z     vdW  Elec       q    Type
                         _______ _______ _______ _____ _____    ______ ____

>  <TORSDO>
F 14

>  <SCORE>
-7.202

>  <RMSD_LB>
3.040

>  <RMSD_UB>
6.486

$$$$
CHEMBL4127659
 OpenBabel10162523483D

 36 37  0  0  0  0  0  0  0  0999 V2000
  141.6790  138.5380  150.9520 C   0  0  0  0  0  0  0  0  0  0  0  0
  142.9270  137.9960  150.5840 C   0  0  0  0  0  3  0  0  0  0  0  0
  143.7990  137.4080  151.5280 C   0  0  0  0  0  0  0  0  0  0  0  0
  143.3780  137.3650  152.8540 C   0  0  0  0  0  3  0  0  0  0  0  0
  142.1390  137.8870  153.2320 C   0  0  0  0  0  3  0  0  0  0  0  0
  141.2650  138.4440  152.2840 C   0  0  0  0  0  0  0  0  0  0  0  0
  140.5880  138.4440  148.8580 C   0  0  0  0  0  1  0  0  0  0  0  0
  140.8880  139.1980  150.0350 O   0  0  0  0  0  0  0  0  0  0  0  0
  145.1420  136.8950  151.0910 C   0  0  0  0  0  2  0  0  0  0  0  0
  146.1370  137.0110  152.1260 N   0  0  0  0  0  0  0  0  0  0  0  0
  147.0780  138.0240  152.0780 C   0  0  0  0  0  0  0  0  0  0  0  0
  147.1760  138.8370  151.1530 O   0  0  0  0  0  0  0  0  0  0  0  0
  146.1480  136.3660  152.8700 H   0  0  0  0  0  0  0  0  0  0  0  0
  148.0110  138.0210  153.2830 C   0  0  0  0  0  2  0  0  0  0  0  0
  148.5620  139.4060  153.6090 C   0  0  0  0  0  2  0  0  0  0  0  0
  147.6890  140.1560  154.6190 C   0  0  0  0  0  2  0  0  0  0  0  0
  147.6130  141.6340  154.2460 C   0  0  0  0  0  2  0  0  0  0  0  0
  146.6110  141.8700  153.1520 C   0  0  0  0  0  3  0  0  0  0  0  0
  146.9570  142.2500  151.9130 C   0  0  0  0  0  3  0  0  0  0  0  0
  145.9650  142.5010  150.8110 C   0  0  0  0  0  3  0  0  0  0  0  0
  146.6590  142.4780  149.4490 C   0  0  0  0  0  1  0  0  0  0  0  0
  144.8420  141.4660  150.8510 C   0  0  0  0  0  1  0  0  0  0  0  0
  140.0410  138.9990  152.7530 O   0  0  0  0  0  0  0  0  0  0  0  0
  138.9560  138.1230  152.7860 C   0  0  0  0  0  0  0  0  0  0  0  0
  138.4400  137.5680  151.8210 O   0  0  0  0  0  0  0  0  0  0  0  0
  138.4570  137.8430  154.1640 C   0  0  0  0  0  0  0  0  0  0  0  0
  139.1250  138.2220  155.3280 C   0  0  0  0  0  3  0  0  0  0  0  0
  138.6300  137.8190  156.5870 C   0  0  0  0  0  3  0  0  0  0  0  0
  137.4620  137.0360  156.6980 C   0  0  0  0  0  0  0  0  0  0  0  0
  136.8040  136.6620  155.5230 C   0  0  0  0  0  3  0  0  0  0  0  0
  137.3070  137.0510  154.2720 C   0  0  0  0  0  3  0  0  0  0  0  0
  136.9370  136.5750  158.0240 C   0  0  0  0  0  0  0  0  0  0  0  0
  136.9740  137.4690  159.4400 S   0  0  0  0  0  0  0  0  0  0  0  0
  136.3850  135.3120  158.0870 N   0  0  0  0  0  0  0  0  0  0  0  0
  135.4140  135.1940  157.9720 H   0  0  0  0  0  0  0  0  0  0  0  0
  136.9610  134.5300  158.2460 H   0  0  0  0  0  0  0  0  0  0  0  0
  1  6  1  0  0  0  0
  2  1  2  0  0  0  0
  2  3  1  0  0  0  0
  3  4  2  0  0  0  0
  4  5  1  0  0  0  0
  6 23  1  0  0  0  0
  6  5  2  0  0  0  0
  7  8  1  0  0  0  0
  8  1  1  0  0  0  0
  9  3  1  0  0  0  0
  9 10  1  0  0  0  0
 10 13  1  0  0  0  0
 11 10  1  0  0  0  0
 11 14  1  0  0  0  0
 12 11  2  0  0  0  0
 14 15  1  0  0  0  0
 15 16  1  0  0  0  0
 17 16  1  0  0  0  0
 18 17  1  0  0  0  0
 19 18  2  0  0  0  0
 20 22  1  0  0  0  0
 20 19  1  0  0  0  0
 21 20  1  0  0  0  0
 23 24  1  0  0  0  0
 24 26  1  0  0  0  0
 25 24  2  0  0  0  0
 26 31  2  0  0  0  0
 26 27  1  0  0  0  0
 27 28  2  0  0  0  0
 28 29  1  0  0  0  0
 29 32  1  0  0  0  0
 30 29  2  0  0  0  0
 31 30  1  0  0  0  0
 32 34  1  0  0  0  0
 32 33  2  0  0  0  0
 34 36  1  0  0  0  0
 35 34  1  0  0  0  0
M  END
>  <MODEL>
7

>  <REMARK>
 VINA RESULT:    -7.184      4.240      7.359
 INTER + INTRA:         -15.491
 INTER:                 -13.467
 INTRA:                  -2.023
 UNBOUND:                -2.638
  Name = CHEMBL4127659
  17 active torsions:
  status: ('A' for Active; 'I' for Inactive)
    1  A    between atoms: C_1  and  O_2
    2  A    between atoms: O_2  and  C_3
    3  A    between atoms: C_5  and  C_6
    4  A    between atoms: C_6  and  N_7
    5  A    between atoms: C_8  and  C_10
    6  A    between atoms: C_10  and  C_11
    7  A    between atoms: C_11  and  C_12
    8  A    between atoms: C_12  and  C_13
    9  A    between atoms: C_13  and  C_14
   10  A    between atoms: C_15  and  C_16
   11  A    between atoms: C_16  and  C_17
   12  A    between atoms: C_16  and  C_18
   13  A    between atoms: C_21  and  O_22
   14  A    between atoms: O_22  and  C_23
   15  A    between atoms: C_23  and  C_25
   16  A    between atoms: C_28  and  C_29
   17  A    between atoms: C_29  and  N_30
                            x       y       z     vdW  Elec       q    Type
                         _______ _______ _______ _____ _____    ______ ____

>  <TORSDO>
F 14

>  <SCORE>
-7.184

>  <RMSD_LB>
4.240

>  <RMSD_UB>
7.359

$$$$
CHEMBL4127659
 OpenBabel10162523483D

 36 37  0  0  0  0  0  0  0  0999 V2000
  140.9880  138.1160  151.3970 C   0  0  0  0  0  0  0  0  0  0  0  0
  142.3280  137.7130  151.2230 C   0  0  0  0  0  3  0  0  0  0  0  0
  143.2060  137.5340  152.3150 C   0  0  0  0  0  0  0  0  0  0  0  0
  142.6990  137.7550  153.5920 C   0  0  0  0  0  3  0  0  0  0  0  0
  141.3700  138.1420  153.7810 C   0  0  0  0  0  3  0  0  0  0  0  0
  140.4950  138.2910  152.6930 C   0  0  0  0  0  0  0  0  0  0  0  0
  140.7220  137.9920  149.0520 C   0  0  0  0  0  1  0  0  0  0  0  0
  140.1770  138.3850  150.3140 O   0  0  0  0  0  0  0  0  0  0  0  0
  144.6400  137.1570  152.0710 C   0  0  0  0  0  2  0  0  0  0  0  0
  145.2980  138.0620  151.1650 N   0  0  0  0  0  0  0  0  0  0  0  0
  145.7930  137.6010  149.9570 C   0  0  0  0  0  0  0  0  0  0  0  0
  145.7680  136.4180  149.6030 O   0  0  0  0  0  0  0  0  0  0  0  0
  145.3980  139.0120  151.4050 H   0  0  0  0  0  0  0  0  0  0  0  0
  146.4060  138.7100  149.1090 C   0  0  0  0  0  2  0  0  0  0  0  0
  146.5620  140.0210  149.8740 C   0  0  0  0  0  2  0  0  0  0  0  0
  146.4490  141.2440  148.9590 C   0  0  0  0  0  2  0  0  0  0  0  0
  146.5450  142.5230  149.7860 C   0  0  0  0  0  2  0  0  0  0  0  0
  146.9090  142.2260  151.2130 C   0  0  0  0  0  3  0  0  0  0  0  0
  146.0250  142.2850  152.2200 C   0  0  0  0  0  3  0  0  0  0  0  0
  146.3760  142.0020  153.6540 C   0  0  0  0  0  3  0  0  0  0  0  0
  145.6870  140.7230  154.1320 C   0  0  0  0  0  1  0  0  0  0  0  0
  147.8900  141.8820  153.8250 C   0  0  0  0  0  1  0  0  0  0  0  0
  139.1700  138.7350  152.9610 O   0  0  0  0  0  0  0  0  0  0  0  0
  138.2100  137.7300  153.0830 C   0  0  0  0  0  0  0  0  0  0  0  0
  137.7600  137.0410  152.1730 O   0  0  0  0  0  0  0  0  0  0  0  0
  137.7700  137.4920  154.4880 C   0  0  0  0  0  0  0  0  0  0  0  0
  138.2160  138.2340  155.5820 C   0  0  0  0  0  3  0  0  0  0  0  0
  137.8260  137.8670  156.8880 C   0  0  0  0  0  3  0  0  0  0  0  0
  136.9850  136.7580  157.1160 C   0  0  0  0  0  0  0  0  0  0  0  0
  136.5480  136.0220  156.0110 C   0  0  0  0  0  3  0  0  0  0  0  0
  136.9490  136.3800  154.7150 C   0  0  0  0  0  3  0  0  0  0  0  0
  136.5840  136.3360  158.4980 C   0  0  0  0  0  0  0  0  0  0  0  0
  135.6170  135.0180  158.8620 S   0  0  0  0  0  0  0  0  0  0  0  0
  137.0440  137.0950  159.5540 N   0  0  0  0  0  0  0  0  0  0  0  0
  136.6730  136.9580  160.4560 H   0  0  0  0  0  0  0  0  0  0  0  0
  137.7410  137.7730  159.4070 H   0  0  0  0  0  0  0  0  0  0  0  0
  1  6  1  0  0  0  0
  2  1  2  0  0  0  0
  2  3  1  0  0  0  0
  3  4  2  0  0  0  0
  4  5  1  0  0  0  0
  6 23  1  0  0  0  0
  6  5  2  0  0  0  0
  7  8  1  0  0  0  0
  8  1  1  0  0  0  0
  9  3  1  0  0  0  0
 10 13  1  0  0  0  0
 10  9  1  0  0  0  0
 11 10  1  0  0  0  0
 12 11  2  0  0  0  0
 14 15  1  0  0  0  0
 14 11  1  0  0  0  0
 16 17  1  0  0  0  0
 16 15  1  0  0  0  0
 17 18  1  0  0  0  0
 18 19  2  0  0  0  0
 19 20  1  0  0  0  0
 20 22  1  0  0  0  0
 20 21  1  0  0  0  0
 23 24  1  0  0  0  0
 24 26  1  0  0  0  0
 25 24  2  0  0  0  0
 26 31  2  0  0  0  0
 26 27  1  0  0  0  0
 27 28  2  0  0  0  0
 28 29  1  0  0  0  0
 29 32  1  0  0  0  0
 30 29  2  0  0  0  0
 31 30  1  0  0  0  0
 32 33  2  0  0  0  0
 32 34  1  0  0  0  0
 34 35  1  0  0  0  0
 36 34  1  0  0  0  0
M  END
>  <MODEL>
8

>  <REMARK>
 VINA RESULT:    -7.037      4.137      7.236
 INTER + INTRA:         -15.227
 INTER:                 -13.603
 INTRA:                  -1.624
 UNBOUND:                -2.638
  Name = CHEMBL4127659
  17 active torsions:
  status: ('A' for Active; 'I' for Inactive)
    1  A    between atoms: C_1  and  O_2
    2  A    between atoms: O_2  and  C_3
    3  A    between atoms: C_5  and  C_6
    4  A    between atoms: C_6  and  N_7
    5  A    between atoms: C_8  and  C_10
    6  A    between atoms: C_10  and  C_11
    7  A    between atoms: C_11  and  C_12
    8  A    between atoms: C_12  and  C_13
    9  A    between atoms: C_13  and  C_14
   10  A    between atoms: C_15  and  C_16
   11  A    between atoms: C_16  and  C_17
   12  A    between atoms: C_16  and  C_18
   13  A    between atoms: C_21  and  O_22
   14  A    between atoms: O_22  and  C_23
   15  A    between atoms: C_23  and  C_25
   16  A    between atoms: C_28  and  C_29
   17  A    between atoms: C_29  and  N_30
                            x       y       z     vdW  Elec       q    Type
                         _______ _______ _______ _____ _____    ______ ____

>  <TORSDO>
F 14

>  <SCORE>
-7.037

>  <RMSD_LB>
4.137

>  <RMSD_UB>
7.236

$$$$
CHEMBL4127659
 OpenBabel10162523483D

 36 37  0  0  0  0  0  0  0  0999 V2000
  141.5170  137.0880  150.4780 C   0  0  0  0  0  0  0  0  0  0  0  0
  141.8540  137.5440  151.7690 C   0  0  0  0  0  3  0  0  0  0  0  0
  140.8730  137.9360  152.7080 C   0  0  0  0  0  0  0  0  0  0  0  0
  139.5400  137.8430  152.3220 C   0  0  0  0  0  3  0  0  0  0  0  0
  139.1890  137.3810  151.0510 C   0  0  0  0  0  3  0  0  0  0  0  0
  140.1680  136.9670  150.1330 C   0  0  0  0  0  0  0  0  0  0  0  0
  143.8050  137.2390  149.9070 C   0  0  0  0  0  1  0  0  0  0  0  0
  142.4920  136.8100  149.5420 O   0  0  0  0  0  0  0  0  0  0  0  0
  141.2890  138.4670  154.0510 C   0  0  0  0  0  2  0  0  0  0  0  0
  140.6910  137.7370  155.1380 N   0  0  0  0  0  0  0  0  0  0  0  0
  139.4800  138.1470  155.6700 C   0  0  0  0  0  0  0  0  0  0  0  0
  138.8740  139.1610  155.3140 O   0  0  0  0  0  0  0  0  0  0  0  0
  141.1450  136.9440  155.5050 H   0  0  0  0  0  0  0  0  0  0  0  0
  138.9780  137.2220  156.7730 C   0  0  0  0  0  2  0  0  0  0  0  0
  137.4940  137.4150  157.0750 C   0  0  0  0  0  2  0  0  0  0  0  0
  136.6150  137.1670  155.8470 C   0  0  0  0  0  2  0  0  0  0  0  0
  136.3650  135.6710  155.6780 C   0  0  0  0  0  2  0  0  0  0  0  0
  135.8580  135.3520  154.3010 C   0  0  0  0  0  3  0  0  0  0  0  0
  136.2190  136.0450  153.2100 C   0  0  0  0  0  3  0  0  0  0  0  0
  135.7120  135.7450  151.8280 C   0  0  0  0  0  3  0  0  0  0  0  0
  136.0270  134.2990  151.4420 C   0  0  0  0  0  1  0  0  0  0  0  0
  134.2080  136.0010  151.7380 C   0  0  0  0  0  1  0  0  0  0  0  0
  139.7370  136.5550  148.8400 O   0  0  0  0  0  0  0  0  0  0  0  0
  138.7260  137.3270  148.2680 C   0  0  0  0  0  0  0  0  0  0  0  0
  138.8550  138.4400  147.7700 O   0  0  0  0  0  0  0  0  0  0  0  0
  137.3960  136.6500  148.2510 C   0  0  0  0  0  0  0  0  0  0  0  0
  137.2150  135.2900  148.0020 C   0  0  0  0  0  3  0  0  0  0  0  0
  135.9110  134.7600  147.9010 C   0  0  0  0  0  3  0  0  0  0  0  0
  134.7730  135.5810  148.0510 C   0  0  0  0  0  0  0  0  0  0  0  0
  134.9700  136.9420  148.2980 C   0  0  0  0  0  3  0  0  0  0  0  0
  136.2670  137.4690  148.3830 C   0  0  0  0  0  3  0  0  0  0  0  0
  133.3810  135.0410  147.9180 C   0  0  0  0  0  0  0  0  0  0  0  0
  132.8070  133.6580  148.6670 S   0  0  0  0  0  0  0  0  0  0  0  0
  132.5030  135.7340  147.1100 N   0  0  0  0  0  0  0  0  0  0  0  0
  132.8380  136.4450  146.5160 H   0  0  0  0  0  0  0  0  0  0  0  0
  131.5440  135.5190  147.1270 H   0  0  0  0  0  0  0  0  0  0  0  0
  1  2  1  0  0  0  0
  2  3  2  0  0  0  0
  3  9  1  0  0  0  0
  4  3  1  0  0  0  0
  5  4  2  0  0  0  0
  6  1  2  0  0  0  0
  6  5  1  0  0  0  0
  8  7  1  0  0  0  0
  8  1  1  0  0  0  0
  9 10  1  0  0  0  0
 10 13  1  0  0  0  0
 10 11  1  0  0  0  0
 11 14  1  0  0  0  0
 12 11  2  0  0  0  0
 14 15  1  0  0  0  0
 16 15  1  0  0  0  0
 17 16  1  0  0  0  0
 18 17  1  0  0  0  0
 19 18  2  0  0  0  0
 20 19  1  0  0  0  0
 21 20  1  0  0  0  0
 22 20  1  0  0  0  0
 23  6  1  0  0  0  0
 24 23  1  0  0  0  0
 25 24  2  0  0  0  0
 26 24  1  0  0  0  0
 26 31  1  0  0  0  0
 27 26  2  0  0  0  0
 28 27  1  0  0  0  0
 28 29  2  0  0  0  0
 29 30  1  0  0  0  0
 30 31  2  0  0  0  0
 32 29  1  0  0  0  0
 32 33  2  0  0  0  0
 34 36  1  0  0  0  0
 34 32  1  0  0  0  0
 35 34  1  0  0  0  0
M  END
>  <MODEL>
9

>  <REMARK>
 VINA RESULT:    -6.963      2.551      5.631
 INTER + INTRA:         -15.096
 INTER:                 -12.458
 INTRA:                  -2.638
 UNBOUND:                -2.638
  Name = CHEMBL4127659
  17 active torsions:
  status: ('A' for Active; 'I' for Inactive)
    1  A    between atoms: C_1  and  O_2
    2  A    between atoms: O_2  and  C_3
    3  A    between atoms: C_5  and  C_6
    4  A    between atoms: C_6  and  N_7
    5  A    between atoms: C_8  and  C_10
    6  A    between atoms: C_10  and  C_11
    7  A    between atoms: C_11  and  C_12
    8  A    between atoms: C_12  and  C_13
    9  A    between atoms: C_13  and  C_14
   10  A    between atoms: C_15  and  C_16
   11  A    between atoms: C_16  and  C_17
   12  A    between atoms: C_16  and  C_18
   13  A    between atoms: C_21  and  O_22
   14  A    between atoms: O_22  and  C_23
   15  A    between atoms: C_23  and  C_25
   16  A    between atoms: C_28  and  C_29
   17  A    between atoms: C_29  and  N_30
                            x       y       z     vdW  Elec       q    Type
                         _______ _______ _______ _____ _____    ______ ____

>  <TORSDO>
F 14

>  <SCORE>
-6.963

>  <RMSD_LB>
2.551

>  <RMSD_UB>
5.631

$$$$
