CHEMBL5286618
 OpenBabel10172500393D

 34 34  0  0  0  0  0  0  0  0999 V2000
  140.4040  138.4060  153.4560 C   0  0  0  0  0  0  0  0  0  0  0  0
  140.7520  137.6720  152.3190 C   0  0  0  0  0  3  0  0  0  0  0  0
  142.0910  137.4170  152.0050 C   0  0  0  0  0  3  0  0  0  0  0  0
  143.1150  137.9320  152.8040 C   0  0  0  0  0  0  0  0  0  0  0  0
  142.7800  138.7000  153.9350 C   0  0  0  0  0  0  0  0  0  0  0  0
  141.4330  138.8960  154.2740 C   0  0  0  0  0  3  0  0  0  0  0  0
  143.6610  139.2960  154.8030 O   0  0  0  0  0  0  0  0  0  0  0  0
  143.0860  139.9990  155.9020 C   0  0  0  0  0  1  0  0  0  0  0  0
  138.9530  138.6800  153.7560 C   0  0  0  0  0  2  0  0  0  0  0  0
  137.3840  138.1300  155.5660 C   0  0  0  0  0  0  0  0  0  0  0  0
  136.9110  139.2590  155.5890 O   0  0  0  0  0  0  0  0  0  0  0  0
  138.4160  137.7570  154.7340 N   0  0  0  0  0  0  0  0  0  0  0  0
  138.7930  136.8510  154.8050 H   0  0  0  0  0  0  0  0  0  0  0  0
  136.8980  137.0110  156.4700 C   0  0  0  0  0  2  0  0  0  0  0  0
  136.7390  135.7200  155.6670 C   0  0  0  0  0  2  0  0  0  0  0  0
  135.3160  135.1720  155.7220 C   0  0  0  0  0  2  0  0  0  0  0  0
  134.5690  135.4960  154.4330 C   0  0  0  0  0  2  0  0  0  0  0  0
  134.5330  134.2920  153.4940 C   0  0  0  0  0  2  0  0  0  0  0  0
  135.7190  134.3180  152.5330 C   0  0  0  0  0  2  0  0  0  0  0  0
  136.7650  136.4570  151.7410 C   0  0  0  0  0  1  0  0  0  0  0  0
  135.6110  135.4860  151.5570 C   0  0  0  0  0  2  0  0  0  0  0  0
  144.4340  137.6390  152.6030 O   0  0  0  0  0  0  0  0  0  0  0  0
  145.0310  137.9780  151.3570 C   0  0  0  0  0  2  0  0  0  0  0  0
  145.6890  139.3540  151.5220 C   0  0  0  0  0  2  0  0  0  0  0  0
  146.9430  139.2140  152.3890 C   0  0  0  0  0  2  0  0  0  0  0  0
  146.6970  139.4830  153.7850 N   0  0  0  0  0  0  0  0  0  0  0  0
  146.7800  138.5410  154.7560 C   0  0  0  0  0  0  0  0  0  0  0  0
  147.0360  137.2900  154.5930 N   0  0  0  0  0  4  0  0  0  0  0  0
  146.6140  139.0050  156.0030 N   0  0  0  0  0  0  0  0  0  0  0  0
  146.4540  140.4000  154.0480 H   0  0  0  0  0  0  0  0  0  0  0  0
  147.1630  136.9280  153.6860 H   0  0  0  0  0  0  0  0  0  0  0  0
  147.1070  136.6960  155.3740 H   0  0  0  0  0  0  0  0  0  0  0  0
  146.4160  139.9580  156.1520 H   0  0  0  0  0  0  0  0  0  0  0  0
  146.6890  138.3920  156.7700 H   0  0  0  0  0  0  0  0  0  0  0  0
  1  9  1  0  0  0  0
  1  6  1  0  0  0  0
  2  1  2  0  0  0  0
  3  2  1  0  0  0  0
  3  4  2  0  0  0  0
  4  5  1  0  0  0  0
  5  6  2  0  0  0  0
  5  7  1  0  0  0  0
  7  8  1  0  0  0  0
  9 12  1  0  0  0  0
 10 11  2  0  0  0  0
 10 14  1  0  0  0  0
 12 13  1  0  0  0  0
 12 10  1  0  0  0  0
 15 16  1  0  0  0  0
 15 14  1  0  0  0  0
 17 16  1  0  0  0  0
 18 17  1  0  0  0  0
 19 18  1  0  0  0  0
 21 20  1  0  0  0  0
 21 19  1  0  0  0  0
 22  4  1  0  0  0  0
 23 24  1  0  0  0  0
 23 22  1  0  0  0  0
 24 25  1  0  0  0  0
 25 26  1  0  0  0  0
 26 30  1  0  0  0  0
 26 27  1  0  0  0  0
 27 29  1  0  0  0  0
 28 27  2  0  0  0  0
 28 32  1  0  0  0  0
 29 33  1  0  0  0  0
 29 34  1  0  0  0  0
 31 28  1  0  0  0  0
M  END
>  <MODEL>
1

>  <REMARK>
 VINA RESULT:    -6.738      0.000      0.000
 INTER + INTRA:         -14.500
 INTER:                 -12.219
 INTRA:                  -2.280
 UNBOUND:                -1.853
  Name = CHEMBL5286618
  17 active torsions:
  status: ('A' for Active; 'I' for Inactive)
    1  A    between atoms: C_1  and  C_2
    2  A    between atoms: C_2  and  C_3
    3  A    between atoms: C_3  and  C_4
    4  A    between atoms: C_4  and  C_5
    5  A    between atoms: C_5  and  C_6
    6  A    between atoms: C_6  and  C_7
    7  A    between atoms: C_7  and  C_8
    8  A    between atoms: C_8  and  C_9
    9  A    between atoms: N_11  and  C_12
   10  A    between atoms: C_12  and  C_13
   11  A    between atoms: C_16  and  O_17
   12  A    between atoms: O_17  and  C_18
   13  A    between atoms: C_18  and  C_19
   14  A    between atoms: C_19  and  C_20
   15  A    between atoms: C_20  and  N_21
   16  A    between atoms: C_25  and  O_26
   17  A    between atoms: O_26  and  C_27
                            x       y       z     vdW  Elec       q    Type
                         _______ _______ _______ _____ _____    ______ ____

>  <TORSDO>
F 15

>  <SCORE>
-6.738

>  <RMSD_LB>
0.000

>  <RMSD_UB>
0.000

$$$$
CHEMBL5286618
 OpenBabel10172500393D

 34 34  0  0  0  0  0  0  0  0999 V2000
  133.5050  134.3330  150.2560 C   0  0  0  0  0  0  0  0  0  0  0  0
  132.6600  133.7220  149.3240 C   0  0  0  0  0  3  0  0  0  0  0  0
  133.1480  133.2730  148.0930 C   0  0  0  0  0  3  0  0  0  0  0  0
  134.4880  133.4660  147.7490 C   0  0  0  0  0  0  0  0  0  0  0  0
  135.3440  134.1070  148.6650 C   0  0  0  0  0  0  0  0  0  0  0  0
  134.8580  134.4980  149.9220 C   0  0  0  0  0  3  0  0  0  0  0  0
  136.6720  134.3960  148.4720 O   0  0  0  0  0  0  0  0  0  0  0  0
  136.9840  135.7500  148.1530 C   0  0  0  0  0  1  0  0  0  0  0  0
  132.9450  134.8240  151.5650 C   0  0  0  0  0  2  0  0  0  0  0  0
  134.1280  135.1780  153.6910 C   0  0  0  0  0  0  0  0  0  0  0  0
  133.9770  136.3920  153.6490 O   0  0  0  0  0  0  0  0  0  0  0  0
  133.6970  134.3250  152.6990 N   0  0  0  0  0  0  0  0  0  0  0  0
  133.9020  133.3650  152.7610 H   0  0  0  0  0  0  0  0  0  0  0  0
  134.8290  134.4710  154.8370 C   0  0  0  0  0  2  0  0  0  0  0  0
  135.4000  135.4980  155.8160 C   0  0  0  0  0  2  0  0  0  0  0  0
  136.8470  135.8600  155.5000 C   0  0  0  0  0  2  0  0  0  0  0  0
  137.6450  136.0470  156.7870 C   0  0  0  0  0  2  0  0  0  0  0  0
  137.7930  137.5250  157.1390 C   0  0  0  0  0  2  0  0  0  0  0  0
  137.7350  137.7310  158.6500 C   0  0  0  0  0  2  0  0  0  0  0  0
  135.6450  136.8740  159.7450 C   0  0  0  0  0  1  0  0  0  0  0  0
  136.3190  138.0750  159.1050 C   0  0  0  0  0  2  0  0  0  0  0  0
  135.0430  132.9660  146.6060 O   0  0  0  0  0  0  0  0  0  0  0  0
  134.5450  133.4110  145.3490 C   0  0  0  0  0  2  0  0  0  0  0  0
  135.2740  134.7150  145.0010 C   0  0  0  0  0  2  0  0  0  0  0  0
  134.2440  135.8290  144.7930 C   0  0  0  0  0  2  0  0  0  0  0  0
  133.4590  136.1020  145.9720 N   0  0  0  0  0  0  0  0  0  0  0  0
  133.6690  137.1660  146.7830 C   0  0  0  0  0  0  0  0  0  0  0  0
  134.5970  138.0500  146.6660 N   0  0  0  0  0  4  0  0  0  0  0  0
  132.7740  137.3020  147.7730 N   0  0  0  0  0  0  0  0  0  0  0  0
  132.7310  135.4790  146.2020 H   0  0  0  0  0  0  0  0  0  0  0  0
  135.2640  137.9710  145.9470 H   0  0  0  0  0  0  0  0  0  0  0  0
  134.6390  138.8060  147.2950 H   0  0  0  0  0  0  0  0  0  0  0  0
  132.0560  136.6380  147.8830 H   0  0  0  0  0  0  0  0  0  0  0  0
  132.8360  138.0670  148.3900 H   0  0  0  0  0  0  0  0  0  0  0  0
  1  9  1  0  0  0  0
  2  1  2  0  0  0  0
  3  2  1  0  0  0  0
  4  3  2  0  0  0  0
  4  5  1  0  0  0  0
  5  6  2  0  0  0  0
  6  1  1  0  0  0  0
  7  5  1  0  0  0  0
  8  7  1  0  0  0  0
  9 12  1  0  0  0  0
 10 14  1  0  0  0  0
 11 10  2  0  0  0  0
 12 13  1  0  0  0  0
 12 10  1  0  0  0  0
 14 15  1  0  0  0  0
 16 15  1  0  0  0  0
 16 17  1  0  0  0  0
 17 18  1  0  0  0  0
 18 19  1  0  0  0  0
 19 21  1  0  0  0  0
 21 20  1  0  0  0  0
 22  4  1  0  0  0  0
 23 22  1  0  0  0  0
 24 23  1  0  0  0  0
 25 24  1  0  0  0  0
 25 26  1  0  0  0  0
 26 30  1  0  0  0  0
 26 27  1  0  0  0  0
 27 29  1  0  0  0  0
 28 27  2  0  0  0  0
 28 32  1  0  0  0  0
 29 33  1  0  0  0  0
 29 34  1  0  0  0  0
 31 28  1  0  0  0  0
M  END
>  <MODEL>
2

>  <REMARK>
 VINA RESULT:    -6.583      7.284     10.142
 INTER + INTRA:         -14.208
 INTER:                 -12.567
 INTRA:                  -1.641
 UNBOUND:                -1.853
  Name = CHEMBL5286618
  17 active torsions:
  status: ('A' for Active; 'I' for Inactive)
    1  A    between atoms: C_1  and  C_2
    2  A    between atoms: C_2  and  C_3
    3  A    between atoms: C_3  and  C_4
    4  A    between atoms: C_4  and  C_5
    5  A    between atoms: C_5  and  C_6
    6  A    between atoms: C_6  and  C_7
    7  A    between atoms: C_7  and  C_8
    8  A    between atoms: C_8  and  C_9
    9  A    between atoms: N_11  and  C_12
   10  A    between atoms: C_12  and  C_13
   11  A    between atoms: C_16  and  O_17
   12  A    between atoms: O_17  and  C_18
   13  A    between atoms: C_18  and  C_19
   14  A    between atoms: C_19  and  C_20
   15  A    between atoms: C_20  and  N_21
   16  A    between atoms: C_25  and  O_26
   17  A    between atoms: O_26  and  C_27
                            x       y       z     vdW  Elec       q    Type
                         _______ _______ _______ _____ _____    ______ ____

>  <TORSDO>
F 15

>  <SCORE>
-6.583

>  <RMSD_LB>
7.284

>  <RMSD_UB>
10.142

$$$$
CHEMBL5286618
 OpenBabel10172500393D

 34 34  0  0  0  0  0  0  0  0999 V2000
  140.1460  138.3710  153.8300 C   0  0  0  0  0  0  0  0  0  0  0  0
  140.4120  137.8060  152.5800 C   0  0  0  0  0  3  0  0  0  0  0  0
  141.7230  137.6850  152.1070 C   0  0  0  0  0  3  0  0  0  0  0  0
  142.7950  138.1690  152.8600 C   0  0  0  0  0  0  0  0  0  0  0  0
  142.5390  138.7680  154.1080 C   0  0  0  0  0  0  0  0  0  0  0  0
  141.2260  138.8280  154.6000 C   0  0  0  0  0  3  0  0  0  0  0  0
  143.4710  139.3140  154.9540 O   0  0  0  0  0  0  0  0  0  0  0  0
  142.9630  140.0380  156.0710 C   0  0  0  0  0  1  0  0  0  0  0  0
  138.7220  138.5060  154.3030 C   0  0  0  0  0  2  0  0  0  0  0  0
  136.8670  137.0980  155.0910 C   0  0  0  0  0  0  0  0  0  0  0  0
  136.3270  138.0240  155.6810 O   0  0  0  0  0  0  0  0  0  0  0  0
  138.0640  137.2200  154.4210 N   0  0  0  0  0  0  0  0  0  0  0  0
  138.4780  136.4240  154.0160 H   0  0  0  0  0  0  0  0  0  0  0  0
  136.2860  135.6950  155.0460 C   0  0  0  0  0  2  0  0  0  0  0  0
  134.9810  135.6940  154.2490 C   0  0  0  0  0  2  0  0  0  0  0  0
  134.7900  134.4110  153.4470 C   0  0  0  0  0  2  0  0  0  0  0  0
  135.9020  134.2550  152.4150 C   0  0  0  0  0  2  0  0  0  0  0  0
  135.3570  134.3490  150.9920 C   0  0  0  0  0  2  0  0  0  0  0  0
  133.8350  134.4710  151.0010 C   0  0  0  0  0  2  0  0  0  0  0  0
  134.0720  132.7520  149.1870 C   0  0  0  0  0  1  0  0  0  0  0  0
  133.1840  133.2830  150.2990 C   0  0  0  0  0  2  0  0  0  0  0  0
  144.1000  137.9940  152.4960 O   0  0  0  0  0  0  0  0  0  0  0  0
  144.6140  138.7460  151.4030 C   0  0  0  0  0  2  0  0  0  0  0  0
  146.1380  138.8170  151.5700 C   0  0  0  0  0  2  0  0  0  0  0  0
  146.4920  138.6390  153.0500 C   0  0  0  0  0  2  0  0  0  0  0  0
  147.3590  139.6770  153.5520 N   0  0  0  0  0  0  0  0  0  0  0  0
  146.9070  140.8300  154.1020 C   0  0  0  0  0  0  0  0  0  0  0  0
  145.6800  141.1960  154.2200 N   0  0  0  0  0  4  0  0  0  0  0  0
  147.8650  141.6250  154.6000 N   0  0  0  0  0  0  0  0  0  0  0  0
  148.3320  139.5410  153.4920 H   0  0  0  0  0  0  0  0  0  0  0  0
  144.9600  140.6270  153.8620 H   0  0  0  0  0  0  0  0  0  0  0  0
  145.4600  142.0430  154.6680 H   0  0  0  0  0  0  0  0  0  0  0  0
  148.8120  141.3660  154.5210 H   0  0  0  0  0  0  0  0  0  0  0  0
  147.6210  142.4690  155.0450 H   0  0  0  0  0  0  0  0  0  0  0  0
  1  9  1  0  0  0  0
  1  6  1  0  0  0  0
  2  1  2  0  0  0  0
  3  2  1  0  0  0  0
  3  4  2  0  0  0  0
  4  5  1  0  0  0  0
  5  6  2  0  0  0  0
  5  7  1  0  0  0  0
  7  8  1  0  0  0  0
  9 12  1  0  0  0  0
 10 11  2  0  0  0  0
 12 10  1  0  0  0  0
 13 12  1  0  0  0  0
 14 10  1  0  0  0  0
 15 14  1  0  0  0  0
 16 15  1  0  0  0  0
 17 16  1  0  0  0  0
 18 19  1  0  0  0  0
 18 17  1  0  0  0  0
 20 21  1  0  0  0  0
 21 19  1  0  0  0  0
 22  4  1  0  0  0  0
 23 24  1  0  0  0  0
 23 22  1  0  0  0  0
 24 25  1  0  0  0  0
 25 26  1  0  0  0  0
 26 27  1  0  0  0  0
 27 28  2  0  0  0  0
 27 29  1  0  0  0  0
 28 32  1  0  0  0  0
 29 34  1  0  0  0  0
 30 26  1  0  0  0  0
 31 28  1  0  0  0  0
 33 29  1  0  0  0  0
M  END
>  <MODEL>
3

>  <REMARK>
 VINA RESULT:    -6.422      1.460      2.045
 INTER + INTRA:         -13.906
 INTER:                 -12.448
 INTRA:                  -1.458
 UNBOUND:                -1.853
  Name = CHEMBL5286618
  17 active torsions:
  status: ('A' for Active; 'I' for Inactive)
    1  A    between atoms: C_1  and  C_2
    2  A    between atoms: C_2  and  C_3
    3  A    between atoms: C_3  and  C_4
    4  A    between atoms: C_4  and  C_5
    5  A    between atoms: C_5  and  C_6
    6  A    between atoms: C_6  and  C_7
    7  A    between atoms: C_7  and  C_8
    8  A    between atoms: C_8  and  C_9
    9  A    between atoms: N_11  and  C_12
   10  A    between atoms: C_12  and  C_13
   11  A    between atoms: C_16  and  O_17
   12  A    between atoms: O_17  and  C_18
   13  A    between atoms: C_18  and  C_19
   14  A    between atoms: C_19  and  C_20
   15  A    between atoms: C_20  and  N_21
   16  A    between atoms: C_25  and  O_26
   17  A    between atoms: O_26  and  C_27
                            x       y       z     vdW  Elec       q    Type
                         _______ _______ _______ _____ _____    ______ ____

>  <TORSDO>
F 15

>  <SCORE>
-6.422

>  <RMSD_LB>
1.460

>  <RMSD_UB>
2.045

$$$$
CHEMBL5286618
 OpenBabel10172500393D

 34 34  0  0  0  0  0  0  0  0999 V2000
  140.2160  137.8750  151.8950 C   0  0  0  0  0  0  0  0  0  0  0  0
  141.3640  137.6570  151.1280 C   0  0  0  0  0  3  0  0  0  0  0  0
  142.6250  137.5620  151.7260 C   0  0  0  0  0  3  0  0  0  0  0  0
  142.7680  137.7290  153.1050 C   0  0  0  0  0  0  0  0  0  0  0  0
  141.6250  137.9810  153.8870 C   0  0  0  0  0  0  0  0  0  0  0  0
  140.3580  138.0110  153.2840 C   0  0  0  0  0  3  0  0  0  0  0  0
  141.5970  138.1940  155.2430 O   0  0  0  0  0  0  0  0  0  0  0  0
  140.3680  137.9010  155.9020 C   0  0  0  0  0  1  0  0  0  0  0  0
  138.8750  137.9920  151.2190 C   0  0  0  0  0  2  0  0  0  0  0  0
  137.0190  136.4240  151.5920 C   0  0  0  0  0  0  0  0  0  0  0  0
  137.1160  135.9390  150.4730 O   0  0  0  0  0  0  0  0  0  0  0  0
  137.8050  137.4630  152.0400 N   0  0  0  0  0  0  0  0  0  0  0  0
  137.6380  137.8500  152.9290 H   0  0  0  0  0  0  0  0  0  0  0  0
  136.0010  135.9480  152.6150 C   0  0  0  0  0  2  0  0  0  0  0  0
  135.7610  134.4460  152.4550 C   0  0  0  0  0  2  0  0  0  0  0  0
  134.3040  134.1210  152.1420 C   0  0  0  0  0  2  0  0  0  0  0  0
  133.5590  135.3750  151.6980 C   0  0  0  0  0  2  0  0  0  0  0  0
  132.4780  135.0450  150.6710 C   0  0  0  0  0  2  0  0  0  0  0  0
  132.5550  133.5780  150.2550 C   0  0  0  0  0  2  0  0  0  0  0  0
  134.1150  132.4820  148.6230 C   0  0  0  0  0  1  0  0  0  0  0  0
  132.9500  133.4420  148.7870 C   0  0  0  0  0  2  0  0  0  0  0  0
  143.9560  137.5550  153.7570 O   0  0  0  0  0  0  0  0  0  0  0  0
  145.0280  136.9160  153.0720 C   0  0  0  0  0  2  0  0  0  0  0  0
  146.1210  136.6190  154.1070 C   0  0  0  0  0  2  0  0  0  0  0  0
  147.0200  137.8490  154.2580 C   0  0  0  0  0  2  0  0  0  0  0  0
  146.3020  139.0260  154.6840 N   0  0  0  0  0  0  0  0  0  0  0  0
  146.2940  140.1900  153.9910 C   0  0  0  0  0  0  0  0  0  0  0  0
  146.9380  140.4430  152.9060 N   0  0  0  0  0  4  0  0  0  0  0  0
  145.4900  141.1370  154.4960 N   0  0  0  0  0  0  0  0  0  0  0  0
  145.7910  138.9810  155.5240 H   0  0  0  0  0  0  0  0  0  0  0  0
  147.5340  139.7630  152.5170 H   0  0  0  0  0  0  0  0  0  0  0  0
  146.8340  141.3170  152.4650 H   0  0  0  0  0  0  0  0  0  0  0  0
  144.9870  140.9660  155.3260 H   0  0  0  0  0  0  0  0  0  0  0  0
  145.4010  142.0030  154.0370 H   0  0  0  0  0  0  0  0  0  0  0  0
  1  6  1  0  0  0  0
  2  3  1  0  0  0  0
  2  1  2  0  0  0  0
  3  4  2  0  0  0  0
  4 22  1  0  0  0  0
  4  5  1  0  0  0  0
  5  7  1  0  0  0  0
  6  5  2  0  0  0  0
  7  8  1  0  0  0  0
  9  1  1  0  0  0  0
  9 12  1  0  0  0  0
 10 12  1  0  0  0  0
 10 14  1  0  0  0  0
 11 10  2  0  0  0  0
 12 13  1  0  0  0  0
 15 14  1  0  0  0  0
 16 15  1  0  0  0  0
 17 16  1  0  0  0  0
 18 17  1  0  0  0  0
 19 18  1  0  0  0  0
 20 21  1  0  0  0  0
 21 19  1  0  0  0  0
 23 22  1  0  0  0  0
 23 24  1  0  0  0  0
 24 25  1  0  0  0  0
 25 26  1  0  0  0  0
 26 30  1  0  0  0  0
 27 29  1  0  0  0  0
 27 26  1  0  0  0  0
 28 27  2  0  0  0  0
 29 33  1  0  0  0  0
 31 28  1  0  0  0  0
 32 28  1  0  0  0  0
 34 29  1  0  0  0  0
M  END
>  <MODEL>
4

>  <REMARK>
 VINA RESULT:    -6.350      2.376      3.175
 INTER + INTRA:         -13.770
 INTER:                 -12.288
 INTRA:                  -1.483
 UNBOUND:                -1.853
  Name = CHEMBL5286618
  17 active torsions:
  status: ('A' for Active; 'I' for Inactive)
    1  A    between atoms: C_1  and  C_2
    2  A    between atoms: C_2  and  C_3
    3  A    between atoms: C_3  and  C_4
    4  A    between atoms: C_4  and  C_5
    5  A    between atoms: C_5  and  C_6
    6  A    between atoms: C_6  and  C_7
    7  A    between atoms: C_7  and  C_8
    8  A    between atoms: C_8  and  C_9
    9  A    between atoms: N_11  and  C_12
   10  A    between atoms: C_12  and  C_13
   11  A    between atoms: C_16  and  O_17
   12  A    between atoms: O_17  and  C_18
   13  A    between atoms: C_18  and  C_19
   14  A    between atoms: C_19  and  C_20
   15  A    between atoms: C_20  and  N_21
   16  A    between atoms: C_25  and  O_26
   17  A    between atoms: O_26  and  C_27
                            x       y       z     vdW  Elec       q    Type
                         _______ _______ _______ _____ _____    ______ ____

>  <TORSDO>
F 15

>  <SCORE>
-6.350

>  <RMSD_LB>
2.376

>  <RMSD_UB>
3.175

$$$$
CHEMBL5286618
 OpenBabel10172500393D

 34 34  0  0  0  0  0  0  0  0999 V2000
  142.2500  138.8670  152.0580 C   0  0  0  0  0  0  0  0  0  0  0  0
  142.2510  137.7440  152.8900 C   0  0  0  0  0  3  0  0  0  0  0  0
  143.3580  137.4380  153.6890 C   0  0  0  0  0  3  0  0  0  0  0  0
  144.5080  138.2290  153.6370 C   0  0  0  0  0  0  0  0  0  0  0  0
  144.5330  139.3460  152.7800 C   0  0  0  0  0  0  0  0  0  0  0  0
  143.3940  139.6780  152.0310 C   0  0  0  0  0  3  0  0  0  0  0  0
  145.5870  140.2040  152.5930 O   0  0  0  0  0  0  0  0  0  0  0  0
  146.2580  140.1170  151.3380 C   0  0  0  0  0  1  0  0  0  0  0  0
  141.0500  139.1580  151.1950 C   0  0  0  0  0  2  0  0  0  0  0  0
  138.9200  137.9720  150.8790 C   0  0  0  0  0  0  0  0  0  0  0  0
  139.0140  137.9930  149.6580 O   0  0  0  0  0  0  0  0  0  0  0  0
  139.8430  138.5520  151.7200 N   0  0  0  0  0  0  0  0  0  0  0  0
  139.6810  138.5550  152.6910 H   0  0  0  0  0  0  0  0  0  0  0  0
  137.7590  137.3190  151.6080 C   0  0  0  0  0  2  0  0  0  0  0  0
  136.9760  136.4210  150.6490 C   0  0  0  0  0  2  0  0  0  0  0  0
  135.6690  135.9210  151.2560 C   0  0  0  0  0  2  0  0  0  0  0  0
  135.7340  134.4170  151.5010 C   0  0  0  0  0  2  0  0  0  0  0  0
  134.4070  133.8840  152.0330 C   0  0  0  0  0  2  0  0  0  0  0  0
  133.4630  133.5330  150.8850 C   0  0  0  0  0  2  0  0  0  0  0  0
  133.5210  133.0380  148.4260 C   0  0  0  0  0  1  0  0  0  0  0  0
  134.2050  132.8120  149.7630 C   0  0  0  0  0  2  0  0  0  0  0  0
  145.5810  138.0380  154.4600 O   0  0  0  0  0  0  0  0  0  0  0  0
  146.4850  136.9760  154.1740 C   0  0  0  0  0  2  0  0  0  0  0  0
  147.7820  137.6070  153.6500 C   0  0  0  0  0  2  0  0  0  0  0  0
  148.4260  138.4370  154.7640 C   0  0  0  0  0  2  0  0  0  0  0  0
  147.7950  139.7210  154.9490 N   0  0  0  0  0  0  0  0  0  0  0  0
  148.2250  140.8600  154.3550 C   0  0  0  0  0  0  0  0  0  0  0  0
  149.2550  140.9890  153.5950 N   0  0  0  0  0  4  0  0  0  0  0  0
  147.4500  141.9330  154.5720 N   0  0  0  0  0  0  0  0  0  0  0  0
  147.0090  139.7740  155.5410 H   0  0  0  0  0  0  0  0  0  0  0  0
  149.8380  140.2150  153.4210 H   0  0  0  0  0  0  0  0  0  0  0  0
  149.4590  141.8600  153.1860 H   0  0  0  0  0  0  0  0  0  0  0  0
  146.6570  141.8590  155.1510 H   0  0  0  0  0  0  0  0  0  0  0  0
  147.6740  142.7950  154.1520 H   0  0  0  0  0  0  0  0  0  0  0  0
  1  2  1  0  0  0  0
  2  3  2  0  0  0  0
  4  3  1  0  0  0  0
  4 22  1  0  0  0  0
  5  4  2  0  0  0  0
  6  1  2  0  0  0  0
  6  5  1  0  0  0  0
  7  5  1  0  0  0  0
  8  7  1  0  0  0  0
  9 12  1  0  0  0  0
  9  1  1  0  0  0  0
 10 14  1  0  0  0  0
 10 12  1  0  0  0  0
 11 10  2  0  0  0  0
 12 13  1  0  0  0  0
 15 16  1  0  0  0  0
 15 14  1  0  0  0  0
 16 17  1  0  0  0  0
 17 18  1  0  0  0  0
 19 18  1  0  0  0  0
 20 21  1  0  0  0  0
 21 19  1  0  0  0  0
 23 22  1  0  0  0  0
 24 23  1  0  0  0  0
 24 25  1  0  0  0  0
 25 26  1  0  0  0  0
 26 30  1  0  0  0  0
 27 29  1  0  0  0  0
 27 26  1  0  0  0  0
 28 27  2  0  0  0  0
 29 33  1  0  0  0  0
 31 28  1  0  0  0  0
 32 28  1  0  0  0  0
 34 29  1  0  0  0  0
M  END
>  <MODEL>
5

>  <REMARK>
 VINA RESULT:    -6.339      2.730      3.656
 INTER + INTRA:         -13.751
 INTER:                 -11.915
 INTRA:                  -1.836
 UNBOUND:                -1.853
  Name = CHEMBL5286618
  17 active torsions:
  status: ('A' for Active; 'I' for Inactive)
    1  A    between atoms: C_1  and  C_2
    2  A    between atoms: C_2  and  C_3
    3  A    between atoms: C_3  and  C_4
    4  A    between atoms: C_4  and  C_5
    5  A    between atoms: C_5  and  C_6
    6  A    between atoms: C_6  and  C_7
    7  A    between atoms: C_7  and  C_8
    8  A    between atoms: C_8  and  C_9
    9  A    between atoms: N_11  and  C_12
   10  A    between atoms: C_12  and  C_13
   11  A    between atoms: C_16  and  O_17
   12  A    between atoms: O_17  and  C_18
   13  A    between atoms: C_18  and  C_19
   14  A    between atoms: C_19  and  C_20
   15  A    between atoms: C_20  and  N_21
   16  A    between atoms: C_25  and  O_26
   17  A    between atoms: O_26  and  C_27
                            x       y       z     vdW  Elec       q    Type
                         _______ _______ _______ _____ _____    ______ ____

>  <TORSDO>
F 15

>  <SCORE>
-6.339

>  <RMSD_LB>
2.730

>  <RMSD_UB>
3.656

$$$$
CHEMBL5286618
 OpenBabel10172500393D

 34 34  0  0  0  0  0  0  0  0999 V2000
  139.6630  137.5930  151.4300 C   0  0  0  0  0  0  0  0  0  0  0  0
  140.5780  137.1690  150.4610 C   0  0  0  0  0  3  0  0  0  0  0  0
  141.9390  137.0470  150.7580 C   0  0  0  0  0  3  0  0  0  0  0  0
  142.4210  137.3920  152.0220 C   0  0  0  0  0  0  0  0  0  0  0  0
  141.5170  137.8500  152.9980 C   0  0  0  0  0  0  0  0  0  0  0  0
  140.1450  137.9090  152.7090 C   0  0  0  0  0  3  0  0  0  0  0  0
  141.8300  138.2520  154.2730 O   0  0  0  0  0  0  0  0  0  0  0  0
  140.7770  138.1910  155.2310 C   0  0  0  0  0  1  0  0  0  0  0  0
  138.2060  137.7330  151.0740 C   0  0  0  0  0  2  0  0  0  0  0  0
  136.5180  136.0040  151.5270 C   0  0  0  0  0  0  0  0  0  0  0  0
  136.0690  136.6030  152.4960 O   0  0  0  0  0  0  0  0  0  0  0  0
  137.5910  136.4520  150.7890 N   0  0  0  0  0  0  0  0  0  0  0  0
  137.9440  135.8960  150.0580 H   0  0  0  0  0  0  0  0  0  0  0  0
  135.9540  134.6820  151.0380 C   0  0  0  0  0  2  0  0  0  0  0  0
  134.4520  134.6170  151.3180 C   0  0  0  0  0  2  0  0  0  0  0  0
  133.8480  133.2670  150.9450 C   0  0  0  0  0  2  0  0  0  0  0  0
  134.2220  132.8910  149.5150 C   0  0  0  0  0  2  0  0  0  0  0  0
  133.1350  133.3100  148.5290 C   0  0  0  0  0  2  0  0  0  0  0  0
  133.6080  134.4740  147.6610 C   0  0  0  0  0  2  0  0  0  0  0  0
  135.6880  134.0160  146.3350 C   0  0  0  0  0  1  0  0  0  0  0  0
  134.1700  133.9780  146.3320 C   0  0  0  0  0  2  0  0  0  0  0  0
  143.7210  137.2050  152.4000 O   0  0  0  0  0  0  0  0  0  0  0  0
  144.6640  136.7730  151.4260 C   0  0  0  0  0  2  0  0  0  0  0  0
  145.9340  136.3480  152.1730 C   0  0  0  0  0  2  0  0  0  0  0  0
  145.7280  136.5530  153.6770 C   0  0  0  0  0  2  0  0  0  0  0  0
  146.4640  137.6770  154.2010 N   0  0  0  0  0  0  0  0  0  0  0  0
  145.8770  138.7650  154.7530 C   0  0  0  0  0  0  0  0  0  0  0  0
  144.6140  138.9880  154.8560 N   0  0  0  0  0  4  0  0  0  0  0  0
  146.7310  139.6600  155.2730 N   0  0  0  0  0  0  0  0  0  0  0  0
  147.4480  137.6530  154.1530 H   0  0  0  0  0  0  0  0  0  0  0  0
  143.9690  138.3450  154.4830 H   0  0  0  0  0  0  0  0  0  0  0  0
  144.2930  139.8010  155.3080 H   0  0  0  0  0  0  0  0  0  0  0  0
  147.7020  139.5110  155.2050 H   0  0  0  0  0  0  0  0  0  0  0  0
  146.3870  140.4660  155.7210 H   0  0  0  0  0  0  0  0  0  0  0  0
  1  6  1  0  0  0  0
  2  3  1  0  0  0  0
  2  1  2  0  0  0  0
  3  4  2  0  0  0  0
  4 22  1  0  0  0  0
  4  5  1  0  0  0  0
  5  7  1  0  0  0  0
  6  5  2  0  0  0  0
  7  8  1  0  0  0  0
  9  1  1  0  0  0  0
 10 11  2  0  0  0  0
 12  9  1  0  0  0  0
 12 10  1  0  0  0  0
 13 12  1  0  0  0  0
 14 15  1  0  0  0  0
 14 10  1  0  0  0  0
 16 15  1  0  0  0  0
 17 16  1  0  0  0  0
 18 17  1  0  0  0  0
 19 18  1  0  0  0  0
 21 20  1  0  0  0  0
 21 19  1  0  0  0  0
 23 24  1  0  0  0  0
 23 22  1  0  0  0  0
 24 25  1  0  0  0  0
 25 26  1  0  0  0  0
 26 27  1  0  0  0  0
 27 28  2  0  0  0  0
 27 29  1  0  0  0  0
 28 32  1  0  0  0  0
 29 34  1  0  0  0  0
 30 26  1  0  0  0  0
 31 28  1  0  0  0  0
 33 29  1  0  0  0  0
M  END
>  <MODEL>
6

>  <REMARK>
 VINA RESULT:    -6.322      2.676      3.687
 INTER + INTRA:         -13.718
 INTER:                 -11.865
 INTRA:                  -1.853
 UNBOUND:                -1.853
  Name = CHEMBL5286618
  17 active torsions:
  status: ('A' for Active; 'I' for Inactive)
    1  A    between atoms: C_1  and  C_2
    2  A    between atoms: C_2  and  C_3
    3  A    between atoms: C_3  and  C_4
    4  A    between atoms: C_4  and  C_5
    5  A    between atoms: C_5  and  C_6
    6  A    between atoms: C_6  and  C_7
    7  A    between atoms: C_7  and  C_8
    8  A    between atoms: C_8  and  C_9
    9  A    between atoms: N_11  and  C_12
   10  A    between atoms: C_12  and  C_13
   11  A    between atoms: C_16  and  O_17
   12  A    between atoms: O_17  and  C_18
   13  A    between atoms: C_18  and  C_19
   14  A    between atoms: C_19  and  C_20
   15  A    between atoms: C_20  and  N_21
   16  A    between atoms: C_25  and  O_26
   17  A    between atoms: O_26  and  C_27
                            x       y       z     vdW  Elec       q    Type
                         _______ _______ _______ _____ _____    ______ ____

>  <TORSDO>
F 15

>  <SCORE>
-6.322

>  <RMSD_LB>
2.676

>  <RMSD_UB>
3.687

$$$$
CHEMBL5286618
 OpenBabel10172500393D

 34 34  0  0  0  0  0  0  0  0999 V2000
  144.3070  137.5490  153.0670 C   0  0  0  0  0  0  0  0  0  0  0  0
  143.4320  138.0500  154.0360 C   0  0  0  0  0  3  0  0  0  0  0  0
  142.1270  138.4270  153.7040 C   0  0  0  0  0  3  0  0  0  0  0  0
  141.6830  138.3520  152.3810 C   0  0  0  0  0  0  0  0  0  0  0  0
  142.5630  137.8790  151.3900 C   0  0  0  0  0  0  0  0  0  0  0  0
  143.8500  137.4440  151.7450 C   0  0  0  0  0  3  0  0  0  0  0  0
  142.2940  137.7680  150.0480 O   0  0  0  0  0  0  0  0  0  0  0  0
  141.9460  136.4680  149.5790 C   0  0  0  0  0  1  0  0  0  0  0  0
  145.7130  137.1690  153.4530 C   0  0  0  0  0  2  0  0  0  0  0  0
  147.5870  138.2750  154.5960 C   0  0  0  0  0  0  0  0  0  0  0  0
  147.8390  137.2890  155.2780 O   0  0  0  0  0  0  0  0  0  0  0  0
  146.5400  138.3320  153.7030 N   0  0  0  0  0  0  0  0  0  0  0  0
  146.3520  139.1730  153.2290 H   0  0  0  0  0  0  0  0  0  0  0  0
  148.3920  139.5600  154.6720 C   0  0  0  0  0  2  0  0  0  0  0  0
  147.5320  140.7440  154.2270 C   0  0  0  0  0  2  0  0  0  0  0  0
  148.3680  141.9050  153.6990 C   0  0  0  0  0  2  0  0  0  0  0  0
  148.8740  141.6020  152.2920 C   0  0  0  0  0  2  0  0  0  0  0  0
  147.7280  141.2170  151.3600 C   0  0  0  0  0  2  0  0  0  0  0  0
  147.0730  142.4590  150.7620 C   0  0  0  0  0  2  0  0  0  0  0  0
  145.1160  141.0920  151.5350 C   0  0  0  0  0  1  0  0  0  0  0  0
  145.5530  142.3840  150.8650 C   0  0  0  0  0  2  0  0  0  0  0  0
  140.3950  138.6150  152.0120 O   0  0  0  0  0  0  0  0  0  0  0  0
  139.3440  138.3130  152.9230 C   0  0  0  0  0  2  0  0  0  0  0  0
  138.2310  137.6190  152.1270 C   0  0  0  0  0  2  0  0  0  0  0  0
  138.5270  137.7470  150.6300 C   0  0  0  0  0  2  0  0  0  0  0  0
  137.7470  138.7750  149.9850 N   0  0  0  0  0  0  0  0  0  0  0  0
  138.2510  139.9770  149.6150 C   0  0  0  0  0  0  0  0  0  0  0  0
  139.4490  140.4010  149.8110 N   0  0  0  0  0  0  0  0  0  0  0  0
  137.3950  140.7600  148.9410 N   0  0  0  0  0  4  0  0  0  0  0  0
  136.7960  138.5950  149.8050 H   0  0  0  0  0  0  0  0  0  0  0  0
  140.0950  139.8440  150.3030 H   0  0  0  0  0  0  0  0  0  0  0  0
  139.7220  141.2830  149.4700 H   0  0  0  0  0  0  0  0  0  0  0  0
  136.4720  140.4570  148.7790 H   0  0  0  0  0  0  0  0  0  0  0  0
  137.6900  141.6390  148.6080 H   0  0  0  0  0  0  0  0  0  0  0  0
  1  9  1  0  0  0  0
  1  2  1  0  0  0  0
  3  2  2  0  0  0  0
  4  3  1  0  0  0  0
  5  6  1  0  0  0  0
  5  4  2  0  0  0  0
  6  1  2  0  0  0  0
  7  5  1  0  0  0  0
  8  7  1  0  0  0  0
  9 12  1  0  0  0  0
 10 14  1  0  0  0  0
 10 11  2  0  0  0  0
 12 10  1  0  0  0  0
 13 12  1  0  0  0  0
 15 14  1  0  0  0  0
 16 15  1  0  0  0  0
 17 16  1  0  0  0  0
 18 17  1  0  0  0  0
 19 21  1  0  0  0  0
 19 18  1  0  0  0  0
 21 20  1  0  0  0  0
 22  4  1  0  0  0  0
 22 23  1  0  0  0  0
 24 23  1  0  0  0  0
 25 24  1  0  0  0  0
 26 25  1  0  0  0  0
 27 28  1  0  0  0  0
 27 26  1  0  0  0  0
 28 31  1  0  0  0  0
 29 27  2  0  0  0  0
 30 26  1  0  0  0  0
 32 28  1  0  0  0  0
 33 29  1  0  0  0  0
 34 29  1  0  0  0  0
M  END
>  <MODEL>
7

>  <REMARK>
 VINA RESULT:    -6.295      3.134      9.460
 INTER + INTRA:         -13.667
 INTER:                 -11.273
 INTRA:                  -2.395
 UNBOUND:                -1.853
  Name = CHEMBL5286618
  17 active torsions:
  status: ('A' for Active; 'I' for Inactive)
    1  A    between atoms: C_1  and  C_2
    2  A    between atoms: C_2  and  C_3
    3  A    between atoms: C_3  and  C_4
    4  A    between atoms: C_4  and  C_5
    5  A    between atoms: C_5  and  C_6
    6  A    between atoms: C_6  and  C_7
    7  A    between atoms: C_7  and  C_8
    8  A    between atoms: C_8  and  C_9
    9  A    between atoms: N_11  and  C_12
   10  A    between atoms: C_12  and  C_13
   11  A    between atoms: C_16  and  O_17
   12  A    between atoms: O_17  and  C_18
   13  A    between atoms: C_18  and  C_19
   14  A    between atoms: C_19  and  C_20
   15  A    between atoms: C_20  and  N_21
   16  A    between atoms: C_25  and  O_26
   17  A    between atoms: O_26  and  C_27
                            x       y       z     vdW  Elec       q    Type
                         _______ _______ _______ _____ _____    ______ ____

>  <TORSDO>
F 15

>  <SCORE>
-6.295

>  <RMSD_LB>
3.134

>  <RMSD_UB>
9.460

$$$$
CHEMBL5286618
 OpenBabel10172500393D

 34 34  0  0  0  0  0  0  0  0999 V2000
  142.2670  138.8870  151.9950 C   0  0  0  0  0  0  0  0  0  0  0  0
  142.2160  137.7880  152.8580 C   0  0  0  0  0  3  0  0  0  0  0  0
  143.2940  137.4730  153.6910 C   0  0  0  0  0  3  0  0  0  0  0  0
  144.4680  138.2290  153.6450 C   0  0  0  0  0  0  0  0  0  0  0  0
  144.5460  139.3190  152.7590 C   0  0  0  0  0  0  0  0  0  0  0  0
  143.4350  139.6640  151.9730 C   0  0  0  0  0  3  0  0  0  0  0  0
  145.6300  140.1410  152.5730 O   0  0  0  0  0  0  0  0  0  0  0  0
  146.1930  140.1580  151.2640 C   0  0  0  0  0  1  0  0  0  0  0  0
  141.0960  139.1890  151.0970 C   0  0  0  0  0  2  0  0  0  0  0  0
  140.2810  137.3150  149.7300 C   0  0  0  0  0  0  0  0  0  0  0  0
  139.5280  136.9160  150.6090 O   0  0  0  0  0  0  0  0  0  0  0  0
  141.1220  138.3950  149.8850 N   0  0  0  0  0  0  0  0  0  0  0  0
  141.7480  138.6300  149.1630 H   0  0  0  0  0  0  0  0  0  0  0  0
  140.3900  136.6500  148.3690 C   0  0  0  0  0  2  0  0  0  0  0  0
  141.2250  135.3740  148.4750 C   0  0  0  0  0  2  0  0  0  0  0  0
  142.6600  135.5750  147.9970 C   0  0  0  0  0  2  0  0  0  0  0  0
  143.6480  135.1030  149.0580 C   0  0  0  0  0  2  0  0  0  0  0  0
  143.8340  136.1540  150.1500 C   0  0  0  0  0  2  0  0  0  0  0  0
  145.3070  136.2880  150.5300 C   0  0  0  0  0  2  0  0  0  0  0  0
  147.4230  135.1970  149.7360 C   0  0  0  0  0  1  0  0  0  0  0  0
  146.2110  136.0180  149.3310 C   0  0  0  0  0  2  0  0  0  0  0  0
  145.5160  138.0290  154.4980 O   0  0  0  0  0  0  0  0  0  0  0  0
  146.4140  136.9550  154.2430 C   0  0  0  0  0  2  0  0  0  0  0  0
  147.6970  137.5590  153.6550 C   0  0  0  0  0  2  0  0  0  0  0  0
  148.4100  138.3770  154.7350 C   0  0  0  0  0  2  0  0  0  0  0  0
  147.8100  139.6710  154.9520 N   0  0  0  0  0  0  0  0  0  0  0  0
  148.2230  140.8020  154.3310 C   0  0  0  0  0  0  0  0  0  0  0  0
  149.2080  140.9130  153.5120 N   0  0  0  0  0  4  0  0  0  0  0  0
  147.4770  141.8870  154.5900 N   0  0  0  0  0  0  0  0  0  0  0  0
  147.0610  139.7370  155.5880 H   0  0  0  0  0  0  0  0  0  0  0  0
  149.7690  140.1300  153.3070 H   0  0  0  0  0  0  0  0  0  0  0  0
  149.4020  141.7810  153.0890 H   0  0  0  0  0  0  0  0  0  0  0  0
  146.7180  141.8270  155.2140 H   0  0  0  0  0  0  0  0  0  0  0  0
  147.6900  142.7440  154.1550 H   0  0  0  0  0  0  0  0  0  0  0  0
  1  2  1  0  0  0  0
  2  3  2  0  0  0  0
  4  3  1  0  0  0  0
  4 22  1  0  0  0  0
  5  4  2  0  0  0  0
  6  1  2  0  0  0  0
  6  5  1  0  0  0  0
  7  5  1  0  0  0  0
  8  7  1  0  0  0  0
  9  1  1  0  0  0  0
 10 12  1  0  0  0  0
 10 11  2  0  0  0  0
 12  9  1  0  0  0  0
 13 12  1  0  0  0  0
 14 15  1  0  0  0  0
 14 10  1  0  0  0  0
 16 15  1  0  0  0  0
 16 17  1  0  0  0  0
 17 18  1  0  0  0  0
 18 19  1  0  0  0  0
 21 20  1  0  0  0  0
 21 19  1  0  0  0  0
 23 22  1  0  0  0  0
 24 23  1  0  0  0  0
 24 25  1  0  0  0  0
 25 26  1  0  0  0  0
 26 30  1  0  0  0  0
 27 29  1  0  0  0  0
 27 26  1  0  0  0  0
 28 27  2  0  0  0  0
 29 33  1  0  0  0  0
 31 28  1  0  0  0  0
 32 28  1  0  0  0  0
 34 29  1  0  0  0  0
M  END
>  <MODEL>
8

>  <REMARK>
 VINA RESULT:    -6.294      4.274      6.221
 INTER + INTRA:         -13.665
 INTER:                 -10.608
 INTRA:                  -3.057
 UNBOUND:                -1.853
  Name = CHEMBL5286618
  17 active torsions:
  status: ('A' for Active; 'I' for Inactive)
    1  A    between atoms: C_1  and  C_2
    2  A    between atoms: C_2  and  C_3
    3  A    between atoms: C_3  and  C_4
    4  A    between atoms: C_4  and  C_5
    5  A    between atoms: C_5  and  C_6
    6  A    between atoms: C_6  and  C_7
    7  A    between atoms: C_7  and  C_8
    8  A    between atoms: C_8  and  C_9
    9  A    between atoms: N_11  and  C_12
   10  A    between atoms: C_12  and  C_13
   11  A    between atoms: C_16  and  O_17
   12  A    between atoms: O_17  and  C_18
   13  A    between atoms: C_18  and  C_19
   14  A    between atoms: C_19  and  C_20
   15  A    between atoms: C_20  and  N_21
   16  A    between atoms: C_25  and  O_26
   17  A    between atoms: O_26  and  C_27
                            x       y       z     vdW  Elec       q    Type
                         _______ _______ _______ _____ _____    ______ ____

>  <TORSDO>
F 15

>  <SCORE>
-6.294

>  <RMSD_LB>
4.274

>  <RMSD_UB>
6.221

$$$$
CHEMBL5286618
 OpenBabel10172500393D

 34 34  0  0  0  0  0  0  0  0999 V2000
  140.3240  138.4010  153.9500 C   0  0  0  0  0  0  0  0  0  0  0  0
  140.4670  138.1060  152.5910 C   0  0  0  0  0  3  0  0  0  0  0  0
  139.3890  137.6310  151.8380 C   0  0  0  0  0  3  0  0  0  0  0  0
  138.1520  137.3980  152.4420 C   0  0  0  0  0  0  0  0  0  0  0  0
  138.0010  137.6600  153.8160 C   0  0  0  0  0  0  0  0  0  0  0  0
  139.0720  138.1960  154.5490 C   0  0  0  0  0  3  0  0  0  0  0  0
  136.8660  137.4620  154.5630 O   0  0  0  0  0  0  0  0  0  0  0  0
  136.9890  137.6720  155.9670 C   0  0  0  0  0  1  0  0  0  0  0  0
  141.5090  138.8920  154.7390 C   0  0  0  0  0  2  0  0  0  0  0  0
  143.7600  138.5810  153.8000 C   0  0  0  0  0  0  0  0  0  0  0  0
  143.7610  139.6830  153.2660 O   0  0  0  0  0  0  0  0  0  0  0  0
  142.6890  138.0830  154.5090 N   0  0  0  0  0  0  0  0  0  0  0  0
  142.7260  137.1660  154.8640 H   0  0  0  0  0  0  0  0  0  0  0  0
  144.9370  137.6240  153.7260 C   0  0  0  0  0  2  0  0  0  0  0  0
  146.0930  138.1490  154.5780 C   0  0  0  0  0  2  0  0  0  0  0  0
  147.3090  138.5270  153.7390 C   0  0  0  0  0  2  0  0  0  0  0  0
  147.5830  140.0240  153.8370 C   0  0  0  0  0  2  0  0  0  0  0  0
  148.5140  140.4920  152.7220 C   0  0  0  0  0  2  0  0  0  0  0  0
  147.8860  141.6420  151.9370 C   0  0  0  0  0  2  0  0  0  0  0  0
  145.5160  142.4030  151.6170 C   0  0  0  0  0  1  0  0  0  0  0  0
  146.6240  142.1540  152.6260 C   0  0  0  0  0  2  0  0  0  0  0  0
  137.0390  137.0260  151.7420 O   0  0  0  0  0  0  0  0  0  0  0  0
  137.0360  137.1760  150.3260 C   0  0  0  0  0  2  0  0  0  0  0  0
  136.7030  135.8070  149.7190 C   0  0  0  0  0  2  0  0  0  0  0  0
  136.5210  134.7870  150.8460 C   0  0  0  0  0  2  0  0  0  0  0  0
  135.1370  134.5590  151.1850 N   0  0  0  0  0  0  0  0  0  0  0  0
  134.6320  134.7370  152.4290 C   0  0  0  0  0  0  0  0  0  0  0  0
  135.2850  135.0800  153.4830 N   0  0  0  0  0  0  0  0  0  0  0  0
  133.3040  134.5700  152.5240 N   0  0  0  0  0  4  0  0  0  0  0  0
  134.5270  134.2560  150.4740 H   0  0  0  0  0  0  0  0  0  0  0  0
  136.2600  135.2090  153.4370 H   0  0  0  0  0  0  0  0  0  0  0  0
  134.8110  135.2150  154.3340 H   0  0  0  0  0  0  0  0  0  0  0  0
  132.7830  134.3070  151.7310 H   0  0  0  0  0  0  0  0  0  0  0  0
  132.8510  134.7100  153.3860 H   0  0  0  0  0  0  0  0  0  0  0  0
  1  6  1  0  0  0  0
  1  9  1  0  0  0  0
  2  1  2  0  0  0  0
  3  4  2  0  0  0  0
  3  2  1  0  0  0  0
  4  5  1  0  0  0  0
  5  6  2  0  0  0  0
  5  7  1  0  0  0  0
  7  8  1  0  0  0  0
 10 12  1  0  0  0  0
 11 10  2  0  0  0  0
 12  9  1  0  0  0  0
 12 13  1  0  0  0  0
 14 10  1  0  0  0  0
 14 15  1  0  0  0  0
 16 17  1  0  0  0  0
 16 15  1  0  0  0  0
 18 17  1  0  0  0  0
 19 21  1  0  0  0  0
 19 18  1  0  0  0  0
 20 21  1  0  0  0  0
 22  4  1  0  0  0  0
 23 22  1  0  0  0  0
 24 23  1  0  0  0  0
 24 25  1  0  0  0  0
 25 26  1  0  0  0  0
 26 27  1  0  0  0  0
 27 29  2  0  0  0  0
 27 28  1  0  0  0  0
 28 32  1  0  0  0  0
 29 34  1  0  0  0  0
 30 26  1  0  0  0  0
 31 28  1  0  0  0  0
 33 29  1  0  0  0  0
M  END
>  <MODEL>
9

>  <REMARK>
 VINA RESULT:    -6.279      2.658      9.531
 INTER + INTRA:         -13.638
 INTER:                 -11.749
 INTRA:                  -1.889
 UNBOUND:                -1.853
  Name = CHEMBL5286618
  17 active torsions:
  status: ('A' for Active; 'I' for Inactive)
    1  A    between atoms: C_1  and  C_2
    2  A    between atoms: C_2  and  C_3
    3  A    between atoms: C_3  and  C_4
    4  A    between atoms: C_4  and  C_5
    5  A    between atoms: C_5  and  C_6
    6  A    between atoms: C_6  and  C_7
    7  A    between atoms: C_7  and  C_8
    8  A    between atoms: C_8  and  C_9
    9  A    between atoms: N_11  and  C_12
   10  A    between atoms: C_12  and  C_13
   11  A    between atoms: C_16  and  O_17
   12  A    between atoms: O_17  and  C_18
   13  A    between atoms: C_18  and  C_19
   14  A    between atoms: C_19  and  C_20
   15  A    between atoms: C_20  and  N_21
   16  A    between atoms: C_25  and  O_26
   17  A    between atoms: O_26  and  C_27
                            x       y       z     vdW  Elec       q    Type
                         _______ _______ _______ _____ _____    ______ ____

>  <TORSDO>
F 15

>  <SCORE>
-6.279

>  <RMSD_LB>
2.658

>  <RMSD_UB>
9.531

$$$$
