CHEMBL5280270
 OpenBabel10172500283D

 31 31  0  0  0  0  0  0  0  0999 V2000
  135.7180  135.8820  153.9800 C   0  0  0  0  0  0  0  0  0  0  0  0
  134.4140  135.4070  154.1640 C   0  0  0  0  0  3  0  0  0  0  0  0
  133.5870  135.1460  153.0690 C   0  0  0  0  0  3  0  0  0  0  0  0
  134.0380  135.3740  151.7660 C   0  0  0  0  0  0  0  0  0  0  0  0
  135.3250  135.8980  151.5680 C   0  0  0  0  0  0  0  0  0  0  0  0
  136.1780  136.0790  152.6680 C   0  0  0  0  0  3  0  0  0  0  0  0
  135.8570  136.2630  150.3530 O   0  0  0  0  0  0  0  0  0  0  0  0
  136.9880  137.1380  150.4230 C   0  0  0  0  0  1  0  0  0  0  0  0
  136.5700  136.2320  155.1740 C   0  0  0  0  0  2  0  0  0  0  0  0
  137.8660  138.2880  154.9410 C   0  0  0  0  0  0  0  0  0  0  0  0
  136.9570  138.9870  155.3960 O   0  0  0  0  0  0  0  0  0  0  0  0
  137.7860  136.9210  154.8300 N   0  0  0  0  0  0  0  0  0  0  0  0
  138.5660  136.4090  154.5140 H   0  0  0  0  0  0  0  0  0  0  0  0
  139.1800  138.8860  154.4830 C   0  0  0  0  0  2  0  0  0  0  0  0
  140.3520  138.1970  155.1670 C   0  0  0  0  0  2  0  0  0  0  0  0
  141.6660  138.4790  154.4520 C   0  0  0  0  0  2  0  0  0  0  0  0
  141.4040  138.6920  152.9650 C   0  0  0  0  0  2  0  0  0  0  0  0
  141.6900  137.4160  152.1770 C   0  0  0  0  0  2  0  0  0  0  0  0
  140.6730  137.2410  151.0540 C   0  0  0  0  0  2  0  0  0  0  0  0
  142.6060  136.2410  149.8200 C   0  0  0  0  0  1  0  0  0  0  0  0
  141.3730  137.1190  149.7090 C   0  0  0  0  0  2  0  0  0  0  0  0
  133.3310  135.0000  150.6590 O   0  0  0  0  0  0  0  0  0  0  0  0
  132.9850  133.6260  150.5330 C   0  0  0  0  0  2  0  0  0  0  0  0
  134.0360  132.9780  149.6380 C   0  0  0  0  0  2  0  0  0  0  0  0
  133.5280  132.8720  148.2060 C   0  0  0  0  0  2  0  0  0  0  0  0
  134.3290  133.7730  147.2720 C   0  0  0  0  0  2  0  0  0  0  0  0
  133.4580  134.8310  146.7640 N   0  0  0  0  0  4  0  0  0  0  0  0
  132.4960  134.6380  147.0450 H   0  0  0  0  0  0  0  0  0  0  0  0
  133.5290  134.8560  145.7470 H   0  0  0  0  0  0  0  0  0  0  0  0
  133.8650  136.1290  147.2970 C   0  0  0  0  0  2  0  0  0  0  0  0
  132.6430  136.8930  147.7780 C   0  0  0  0  0  1  0  0  0  0  0  0
  1  2  1  0  0  0  0
  1  9  1  0  0  0  0
  3  2  2  0  0  0  0
  4  3  1  0  0  0  0
  5  4  2  0  0  0  0
  5  6  1  0  0  0  0
  6  1  2  0  0  0  0
  7  8  1  0  0  0  0
  7  5  1  0  0  0  0
 10 11  2  0  0  0  0
 12 10  1  0  0  0  0
 12  9  1  0  0  0  0
 13 12  1  0  0  0  0
 14 10  1  0  0  0  0
 14 15  1  0  0  0  0
 16 15  1  0  0  0  0
 17 16  1  0  0  0  0
 18 17  1  0  0  0  0
 19 18  1  0  0  0  0
 21 20  1  0  0  0  0
 21 19  1  0  0  0  0
 22  4  1  0  0  0  0
 23 22  1  0  0  0  0
 24 23  1  0  0  0  0
 25 24  1  0  0  0  0
 26 25  1  0  0  0  0
 27 28  1  0  0  0  0
 27 26  1  0  0  0  0
 27 30  1  0  0  0  0
 29 27  1  0  0  0  0
 30 31  1  0  0  0  0
M  END
>  <MODEL>
1

>  <REMARK>
 VINA RESULT:    -6.372      0.000      0.000
 INTER + INTRA:         -14.189
 INTER:                 -12.519
 INTRA:                  -1.669
 UNBOUND:                -1.485
  Name = CHEMBL5280270
  20 active torsions:
  status: ('A' for Active; 'I' for Inactive)
    1  A    between atoms: C_1  and  C_2
    2  A    between atoms: C_2  and  C_3
    3  A    between atoms: C_3  and  C_4
    4  A    between atoms: C_4  and  C_5
    5  A    between atoms: C_5  and  C_6
    6  A    between atoms: C_6  and  C_7
    7  A    between atoms: C_7  and  C_8
    8  A    between atoms: C_8  and  C_9
    9  A    between atoms: N_11  and  C_12
   10  A    between atoms: C_12  and  C_13
   11  A    between atoms: C_16  and  O_17
   12  A    between atoms: O_17  and  C_18
   13  A    between atoms: C_18  and  C_19
   14  A    between atoms: C_19  and  C_20
   15  A    between atoms: C_20  and  C_21
   16  A    between atoms: C_21  and  N_22
   17  A    between atoms: N_22  and  C_23
   18  A    between atoms: C_23  and  C_24
   19  A    between atoms: C_25  and  O_26
   20  A    between atoms: O_26  and  C_27
                            x       y       z     vdW  Elec       q    Type
                         _______ _______ _______ _____ _____    ______ ____

>  <TORSDO>
F 17

>  <SCORE>
-6.372

>  <RMSD_LB>
0.000

>  <RMSD_UB>
0.000

$$$$
CHEMBL5280270
 OpenBabel10172500283D

 31 31  0  0  0  0  0  0  0  0999 V2000
  142.6180  137.7250  152.7860 C   0  0  0  0  0  0  0  0  0  0  0  0
  142.2040  138.1390  154.0590 C   0  0  0  0  0  3  0  0  0  0  0  0
  140.8470  138.2770  154.3590 C   0  0  0  0  0  3  0  0  0  0  0  0
  139.8730  138.0250  153.3890 C   0  0  0  0  0  0  0  0  0  0  0  0
  140.2750  137.6580  152.0950 C   0  0  0  0  0  0  0  0  0  0  0  0
  141.6350  137.4420  151.8250 C   0  0  0  0  0  3  0  0  0  0  0  0
  139.4320  137.4790  151.0220 O   0  0  0  0  0  0  0  0  0  0  0  0
  139.1930  138.6500  150.2350 C   0  0  0  0  0  1  0  0  0  0  0  0
  144.0870  137.6560  152.4560 C   0  0  0  0  0  2  0  0  0  0  0  0
  145.7770  137.8280  154.2100 C   0  0  0  0  0  0  0  0  0  0  0  0
  145.9510  136.6070  154.2470 O   0  0  0  0  0  0  0  0  0  0  0  0
  144.9110  138.4410  153.3370 N   0  0  0  0  0  0  0  0  0  0  0  0
  144.8560  139.4240  153.3120 H   0  0  0  0  0  0  0  0  0  0  0  0
  146.5320  138.7710  155.1230 C   0  0  0  0  0  2  0  0  0  0  0  0
  148.0300  138.6790  154.8710 C   0  0  0  0  0  2  0  0  0  0  0  0
  148.4730  139.6180  153.7570 C   0  0  0  0  0  2  0  0  0  0  0  0
  148.4130  141.0600  154.2490 C   0  0  0  0  0  2  0  0  0  0  0  0
  147.9110  141.9870  153.1460 C   0  0  0  0  0  2  0  0  0  0  0  0
  146.3960  142.1470  153.2280 C   0  0  0  0  0  2  0  0  0  0  0  0
  146.8860  142.3410  150.7830 C   0  0  0  0  0  1  0  0  0  0  0  0
  145.7990  142.3310  151.8410 C   0  0  0  0  0  2  0  0  0  0  0  0
  138.5360  138.0010  153.6670 O   0  0  0  0  0  0  0  0  0  0  0  0
  138.1480  138.0630  155.0330 C   0  0  0  0  0  2  0  0  0  0  0  0
  137.2310  136.8730  155.2950 C   0  0  0  0  0  2  0  0  0  0  0  0
  137.7680  136.0240  156.4400 C   0  0  0  0  0  2  0  0  0  0  0  0
  136.7680  135.9590  157.5910 C   0  0  0  0  0  2  0  0  0  0  0  0
  136.6160  137.2920  158.1700 N   0  0  0  0  0  4  0  0  0  0  0  0
  135.7510  137.7110  157.8260 H   0  0  0  0  0  0  0  0  0  0  0  0
  137.4160  137.8630  157.8970 H   0  0  0  0  0  0  0  0  0  0  0  0
  136.5680  137.2140  159.6270 C   0  0  0  0  0  2  0  0  0  0  0  0
  137.5800  138.1760  160.2270 C   0  0  0  0  0  1  0  0  0  0  0  0
  1  2  1  0  0  0  0
  2  3  2  0  0  0  0
  4 22  1  0  0  0  0
  4  3  1  0  0  0  0
  5  4  2  0  0  0  0
  6  5  1  0  0  0  0
  6  1  2  0  0  0  0
  7  5  1  0  0  0  0
  8  7  1  0  0  0  0
  9  1  1  0  0  0  0
  9 12  1  0  0  0  0
 10 11  2  0  0  0  0
 10 14  1  0  0  0  0
 12 10  1  0  0  0  0
 13 12  1  0  0  0  0
 15 14  1  0  0  0  0
 16 17  1  0  0  0  0
 16 15  1  0  0  0  0
 18 19  1  0  0  0  0
 18 17  1  0  0  0  0
 20 21  1  0  0  0  0
 21 19  1  0  0  0  0
 22 23  1  0  0  0  0
 23 24  1  0  0  0  0
 24 25  1  0  0  0  0
 25 26  1  0  0  0  0
 26 27  1  0  0  0  0
 27 30  1  0  0  0  0
 28 27  1  0  0  0  0
 29 27  1  0  0  0  0
 30 31  1  0  0  0  0
M  END
>  <MODEL>
2

>  <REMARK>
 VINA RESULT:    -6.350      4.889      8.239
 INTER + INTRA:         -14.146
 INTER:                 -12.748
 INTRA:                  -1.398
 UNBOUND:                -1.485
  Name = CHEMBL5280270
  20 active torsions:
  status: ('A' for Active; 'I' for Inactive)
    1  A    between atoms: C_1  and  C_2
    2  A    between atoms: C_2  and  C_3
    3  A    between atoms: C_3  and  C_4
    4  A    between atoms: C_4  and  C_5
    5  A    between atoms: C_5  and  C_6
    6  A    between atoms: C_6  and  C_7
    7  A    between atoms: C_7  and  C_8
    8  A    between atoms: C_8  and  C_9
    9  A    between atoms: N_11  and  C_12
   10  A    between atoms: C_12  and  C_13
   11  A    between atoms: C_16  and  O_17
   12  A    between atoms: O_17  and  C_18
   13  A    between atoms: C_18  and  C_19
   14  A    between atoms: C_19  and  C_20
   15  A    between atoms: C_20  and  C_21
   16  A    between atoms: C_21  and  N_22
   17  A    between atoms: N_22  and  C_23
   18  A    between atoms: C_23  and  C_24
   19  A    between atoms: C_25  and  O_26
   20  A    between atoms: O_26  and  C_27
                            x       y       z     vdW  Elec       q    Type
                         _______ _______ _______ _____ _____    ______ ____

>  <TORSDO>
F 17

>  <SCORE>
-6.350

>  <RMSD_LB>
4.889

>  <RMSD_UB>
8.239

$$$$
CHEMBL5280270
 OpenBabel10172500283D

 31 31  0  0  0  0  0  0  0  0999 V2000
  139.0810  137.7150  151.7240 C   0  0  0  0  0  0  0  0  0  0  0  0
  140.3270  137.4070  151.1620 C   0  0  0  0  0  3  0  0  0  0  0  0
  141.4990  137.5320  151.9110 C   0  0  0  0  0  3  0  0  0  0  0  0
  141.4560  137.9880  153.2310 C   0  0  0  0  0  0  0  0  0  0  0  0
  140.2200  138.3490  153.7910 C   0  0  0  0  0  0  0  0  0  0  0  0
  139.0400  138.1420  153.0600 C   0  0  0  0  0  3  0  0  0  0  0  0
  140.0440  138.9030  155.0370 O   0  0  0  0  0  0  0  0  0  0  0  0
  139.7150  137.9740  156.0750 C   0  0  0  0  0  1  0  0  0  0  0  0
  137.8350  137.6480  150.8780 C   0  0  0  0  0  2  0  0  0  0  0  0
  136.1050  136.0800  150.1640 C   0  0  0  0  0  0  0  0  0  0  0  0
  135.8710  136.7120  149.1310 O   0  0  0  0  0  0  0  0  0  0  0  0
  137.0780  136.4380  151.0660 N   0  0  0  0  0  0  0  0  0  0  0  0
  137.2590  135.8630  151.8440 H   0  0  0  0  0  0  0  0  0  0  0  0
  135.3430  134.8210  150.5190 C   0  0  0  0  0  2  0  0  0  0  0  0
  135.8370  134.2480  151.8400 C   0  0  0  0  0  2  0  0  0  0  0  0
  134.6900  133.9940  152.8080 C   0  0  0  0  0  2  0  0  0  0  0  0
  133.9300  135.2930  153.0520 C   0  0  0  0  0  2  0  0  0  0  0  0
  133.7380  135.5360  154.5470 C   0  0  0  0  0  2  0  0  0  0  0  0
  134.7020  134.6760  155.3570 C   0  0  0  0  0  2  0  0  0  0  0  0
  136.8690  135.9180  155.2270 C   0  0  0  0  0  1  0  0  0  0  0  0
  135.6940  135.5460  156.1130 C   0  0  0  0  0  2  0  0  0  0  0  0
  142.5470  137.9900  154.0520 O   0  0  0  0  0  0  0  0  0  0  0  0
  143.3670  139.1510  154.0540 C   0  0  0  0  0  2  0  0  0  0  0  0
  144.7470  138.7280  153.5590 C   0  0  0  0  0  2  0  0  0  0  0  0
  145.3610  139.8170  152.6890 C   0  0  0  0  0  2  0  0  0  0  0  0
  144.3300  140.3940  151.7240 C   0  0  0  0  0  2  0  0  0  0  0  0
  145.0210  140.9880  150.5830 N   0  0  0  0  0  4  0  0  0  0  0  0
  144.3740  141.0550  149.7960 H   0  0  0  0  0  0  0  0  0  0  0  0
  145.8160  140.3990  150.3360 H   0  0  0  0  0  0  0  0  0  0  0  0
  145.5100  142.3230  150.9190 C   0  0  0  0  0  2  0  0  0  0  0  0
  146.6000  142.7320  149.9430 C   0  0  0  0  0  1  0  0  0  0  0  0
  1  6  1  0  0  0  0
  2  1  2  0  0  0  0
  2  3  1  0  0  0  0
  3  4  2  0  0  0  0
  4  5  1  0  0  0  0
  4 22  1  0  0  0  0
  5  7  1  0  0  0  0
  6  5  2  0  0  0  0
  7  8  1  0  0  0  0
  9 12  1  0  0  0  0
  9  1  1  0  0  0  0
 10 14  1  0  0  0  0
 10 12  1  0  0  0  0
 11 10  2  0  0  0  0
 12 13  1  0  0  0  0
 14 15  1  0  0  0  0
 15 16  1  0  0  0  0
 16 17  1  0  0  0  0
 17 18  1  0  0  0  0
 18 19  1  0  0  0  0
 19 21  1  0  0  0  0
 20 21  1  0  0  0  0
 22 23  1  0  0  0  0
 24 23  1  0  0  0  0
 25 24  1  0  0  0  0
 26 25  1  0  0  0  0
 27 30  1  0  0  0  0
 27 26  1  0  0  0  0
 28 27  1  0  0  0  0
 29 27  1  0  0  0  0
 31 30  1  0  0  0  0
M  END
>  <MODEL>
3

>  <REMARK>
 VINA RESULT:    -6.244      3.294      9.163
 INTER + INTRA:         -13.934
 INTER:                 -12.212
 INTRA:                  -1.721
 UNBOUND:                -1.485
  Name = CHEMBL5280270
  20 active torsions:
  status: ('A' for Active; 'I' for Inactive)
    1  A    between atoms: C_1  and  C_2
    2  A    between atoms: C_2  and  C_3
    3  A    between atoms: C_3  and  C_4
    4  A    between atoms: C_4  and  C_5
    5  A    between atoms: C_5  and  C_6
    6  A    between atoms: C_6  and  C_7
    7  A    between atoms: C_7  and  C_8
    8  A    between atoms: C_8  and  C_9
    9  A    between atoms: N_11  and  C_12
   10  A    between atoms: C_12  and  C_13
   11  A    between atoms: C_16  and  O_17
   12  A    between atoms: O_17  and  C_18
   13  A    between atoms: C_18  and  C_19
   14  A    between atoms: C_19  and  C_20
   15  A    between atoms: C_20  and  C_21
   16  A    between atoms: C_21  and  N_22
   17  A    between atoms: N_22  and  C_23
   18  A    between atoms: C_23  and  C_24
   19  A    between atoms: C_25  and  O_26
   20  A    between atoms: O_26  and  C_27
                            x       y       z     vdW  Elec       q    Type
                         _______ _______ _______ _____ _____    ______ ____

>  <TORSDO>
F 17

>  <SCORE>
-6.244

>  <RMSD_LB>
3.294

>  <RMSD_UB>
9.163

$$$$
CHEMBL5280270
 OpenBabel10172500283D

 31 31  0  0  0  0  0  0  0  0999 V2000
  138.7280  137.5830  151.9120 C   0  0  0  0  0  0  0  0  0  0  0  0
  139.9450  137.5010  151.2230 C   0  0  0  0  0  3  0  0  0  0  0  0
  141.1530  137.7680  151.8720 C   0  0  0  0  0  3  0  0  0  0  0  0
  141.1710  138.1450  153.2170 C   0  0  0  0  0  0  0  0  0  0  0  0
  139.9550  138.2810  153.9070 C   0  0  0  0  0  0  0  0  0  0  0  0
  138.7530  137.9310  153.2720 C   0  0  0  0  0  3  0  0  0  0  0  0
  139.8200  138.7380  155.1970 O   0  0  0  0  0  0  0  0  0  0  0  0
  139.0980  137.8700  156.0770 C   0  0  0  0  0  1  0  0  0  0  0  0
  137.4290  137.3670  151.1780 C   0  0  0  0  0  2  0  0  0  0  0  0
  135.9160  135.6740  152.0750 C   0  0  0  0  0  0  0  0  0  0  0  0
  135.2970  136.4970  152.7530 O   0  0  0  0  0  0  0  0  0  0  0  0
  136.9540  136.0100  151.2390 N   0  0  0  0  0  0  0  0  0  0  0  0
  137.3730  135.3190  150.6780 H   0  0  0  0  0  0  0  0  0  0  0  0
  135.5640  134.2010  152.0880 C   0  0  0  0  0  2  0  0  0  0  0  0
  135.0540  133.7580  150.7240 C   0  0  0  0  0  2  0  0  0  0  0  0
  133.6640  133.1430  150.8150 C   0  0  0  0  0  2  0  0  0  0  0  0
  132.6650  134.0230  150.0720 C   0  0  0  0  0  2  0  0  0  0  0  0
  132.6360  133.6740  148.5870 C   0  0  0  0  0  2  0  0  0  0  0  0
  133.3620  134.7380  147.7710 C   0  0  0  0  0  2  0  0  0  0  0  0
  134.3260  136.8860  148.6170 C   0  0  0  0  0  1  0  0  0  0  0  0
  133.0490  136.1290  148.3010 C   0  0  0  0  0  2  0  0  0  0  0  0
  142.3240  138.2740  153.9370 O   0  0  0  0  0  0  0  0  0  0  0  0
  143.5470  137.9770  153.2770 C   0  0  0  0  0  2  0  0  0  0  0  0
  144.6680  138.1820  154.2930 C   0  0  0  0  0  2  0  0  0  0  0  0
  145.2520  139.5830  154.1700 C   0  0  0  0  0  2  0  0  0  0  0  0
  146.7200  139.6030  154.5810 C   0  0  0  0  0  2  0  0  0  0  0  0
  147.1980  140.9840  154.5880 N   0  0  0  0  0  4  0  0  0  0  0  0
  148.1860  140.9980  154.3320 H   0  0  0  0  0  0  0  0  0  0  0  0
  147.0710  141.3710  155.5230 H   0  0  0  0  0  0  0  0  0  0  0  0
  146.4410  141.7910  153.6350 C   0  0  0  0  0  2  0  0  0  0  0  0
  147.3070  142.1070  152.4270 C   0  0  0  0  0  1  0  0  0  0  0  0
  1  6  1  0  0  0  0
  2  3  1  0  0  0  0
  2  1  2  0  0  0  0
  3  4  2  0  0  0  0
  4  5  1  0  0  0  0
  4 22  1  0  0  0  0
  5  7  1  0  0  0  0
  6  5  2  0  0  0  0
  7  8  1  0  0  0  0
  9 12  1  0  0  0  0
  9  1  1  0  0  0  0
 10 14  1  0  0  0  0
 10 11  2  0  0  0  0
 12 10  1  0  0  0  0
 13 12  1  0  0  0  0
 15 16  1  0  0  0  0
 15 14  1  0  0  0  0
 17 16  1  0  0  0  0
 18 17  1  0  0  0  0
 19 21  1  0  0  0  0
 19 18  1  0  0  0  0
 21 20  1  0  0  0  0
 23 22  1  0  0  0  0
 23 24  1  0  0  0  0
 25 24  1  0  0  0  0
 25 26  1  0  0  0  0
 26 27  1  0  0  0  0
 27 29  1  0  0  0  0
 28 27  1  0  0  0  0
 30 27  1  0  0  0  0
 31 30  1  0  0  0  0
M  END
>  <MODEL>
4

>  <REMARK>
 VINA RESULT:    -6.228      3.434      9.755
 INTER + INTRA:         -13.903
 INTER:                 -12.543
 INTRA:                  -1.360
 UNBOUND:                -1.485
  Name = CHEMBL5280270
  20 active torsions:
  status: ('A' for Active; 'I' for Inactive)
    1  A    between atoms: C_1  and  C_2
    2  A    between atoms: C_2  and  C_3
    3  A    between atoms: C_3  and  C_4
    4  A    between atoms: C_4  and  C_5
    5  A    between atoms: C_5  and  C_6
    6  A    between atoms: C_6  and  C_7
    7  A    between atoms: C_7  and  C_8
    8  A    between atoms: C_8  and  C_9
    9  A    between atoms: N_11  and  C_12
   10  A    between atoms: C_12  and  C_13
   11  A    between atoms: C_16  and  O_17
   12  A    between atoms: O_17  and  C_18
   13  A    between atoms: C_18  and  C_19
   14  A    between atoms: C_19  and  C_20
   15  A    between atoms: C_20  and  C_21
   16  A    between atoms: C_21  and  N_22
   17  A    between atoms: N_22  and  C_23
   18  A    between atoms: C_23  and  C_24
   19  A    between atoms: C_25  and  O_26
   20  A    between atoms: O_26  and  C_27
                            x       y       z     vdW  Elec       q    Type
                         _______ _______ _______ _____ _____    ______ ____

>  <TORSDO>
F 17

>  <SCORE>
-6.228

>  <RMSD_LB>
3.434

>  <RMSD_UB>
9.755

$$$$
CHEMBL5280270
 OpenBabel10172500283D

 31 31  0  0  0  0  0  0  0  0999 V2000
  142.4130  137.5760  152.4420 C   0  0  0  0  0  0  0  0  0  0  0  0
  141.7830  138.0780  153.5880 C   0  0  0  0  0  3  0  0  0  0  0  0
  140.4040  138.3020  153.6040 C   0  0  0  0  0  3  0  0  0  0  0  0
  139.6270  138.0510  152.4700 C   0  0  0  0  0  0  0  0  0  0  0  0
  140.2530  137.5940  151.2980 C   0  0  0  0  0  0  0  0  0  0  0  0
  141.6240  137.2930  151.3160 C   0  0  0  0  0  3  0  0  0  0  0  0
  139.6300  137.4020  150.0870 O   0  0  0  0  0  0  0  0  0  0  0  0
  140.4570  137.6120  148.9380 C   0  0  0  0  0  1  0  0  0  0  0  0
  143.9120  137.4120  152.4160 C   0  0  0  0  0  2  0  0  0  0  0  0
  145.5540  137.8710  154.1630 C   0  0  0  0  0  0  0  0  0  0  0  0
  145.9160  136.6930  154.2180 O   0  0  0  0  0  0  0  0  0  0  0  0
  144.6040  138.3300  153.2820 N   0  0  0  0  0  0  0  0  0  0  0  0
  144.3970  139.2910  153.2430 H   0  0  0  0  0  0  0  0  0  0  0  0
  146.1550  138.9350  155.0580 C   0  0  0  0  0  2  0  0  0  0  0  0
  147.6740  138.8400  155.0620 C   0  0  0  0  0  2  0  0  0  0  0  0
  148.2890  139.6060  153.8990 C   0  0  0  0  0  2  0  0  0  0  0  0
  148.2720  141.1000  154.2030 C   0  0  0  0  0  2  0  0  0  0  0  0
  147.8310  141.8960  152.9780 C   0  0  0  0  0  2  0  0  0  0  0  0
  146.3600  142.2800  153.0890 C   0  0  0  0  0  2  0  0  0  0  0  0
  145.6760  142.6170  150.7060 C   0  0  0  0  0  1  0  0  0  0  0  0
  145.5670  141.7140  151.9210 C   0  0  0  0  0  2  0  0  0  0  0  0
  138.2630  138.1110  152.4750 O   0  0  0  0  0  0  0  0  0  0  0  0
  137.5600  137.0450  153.1000 C   0  0  0  0  0  2  0  0  0  0  0  0
  136.7710  136.3260  152.0100 C   0  0  0  0  0  2  0  0  0  0  0  0
  135.8040  135.3210  152.6230 C   0  0  0  0  0  2  0  0  0  0  0  0
  134.3690  135.8340  152.5620 C   0  0  0  0  0  2  0  0  0  0  0  0
  133.4520  134.6990  152.6130 N   0  0  0  0  0  4  0  0  0  0  0  0
  132.5030  135.0250  152.4270 H   0  0  0  0  0  0  0  0  0  0  0  0
  133.5020  134.2760  153.5400 H   0  0  0  0  0  0  0  0  0  0  0  0
  133.8210  133.6970  151.6170 C   0  0  0  0  0  2  0  0  0  0  0  0
  133.1750  134.0340  150.2840 C   0  0  0  0  0  1  0  0  0  0  0  0
  1  2  1  0  0  0  0
  2  3  2  0  0  0  0
  4 22  1  0  0  0  0
  4  3  1  0  0  0  0
  5  6  1  0  0  0  0
  5  4  2  0  0  0  0
  6  1  2  0  0  0  0
  7  5  1  0  0  0  0
  8  7  1  0  0  0  0
  9  1  1  0  0  0  0
  9 12  1  0  0  0  0
 10 11  2  0  0  0  0
 10 14  1  0  0  0  0
 12 10  1  0  0  0  0
 13 12  1  0  0  0  0
 14 15  1  0  0  0  0
 16 17  1  0  0  0  0
 16 15  1  0  0  0  0
 18 19  1  0  0  0  0
 18 17  1  0  0  0  0
 20 21  1  0  0  0  0
 21 19  1  0  0  0  0
 22 23  1  0  0  0  0
 24 25  1  0  0  0  0
 24 23  1  0  0  0  0
 26 27  1  0  0  0  0
 26 25  1  0  0  0  0
 27 29  1  0  0  0  0
 28 27  1  0  0  0  0
 30 27  1  0  0  0  0
 31 30  1  0  0  0  0
M  END
>  <MODEL>
5

>  <REMARK>
 VINA RESULT:    -6.203      4.390      6.583
 INTER + INTRA:         -13.852
 INTER:                 -12.385
 INTRA:                  -1.467
 UNBOUND:                -1.485
  Name = CHEMBL5280270
  20 active torsions:
  status: ('A' for Active; 'I' for Inactive)
    1  A    between atoms: C_1  and  C_2
    2  A    between atoms: C_2  and  C_3
    3  A    between atoms: C_3  and  C_4
    4  A    between atoms: C_4  and  C_5
    5  A    between atoms: C_5  and  C_6
    6  A    between atoms: C_6  and  C_7
    7  A    between atoms: C_7  and  C_8
    8  A    between atoms: C_8  and  C_9
    9  A    between atoms: N_11  and  C_12
   10  A    between atoms: C_12  and  C_13
   11  A    between atoms: C_16  and  O_17
   12  A    between atoms: O_17  and  C_18
   13  A    between atoms: C_18  and  C_19
   14  A    between atoms: C_19  and  C_20
   15  A    between atoms: C_20  and  C_21
   16  A    between atoms: C_21  and  N_22
   17  A    between atoms: N_22  and  C_23
   18  A    between atoms: C_23  and  C_24
   19  A    between atoms: C_25  and  O_26
   20  A    between atoms: O_26  and  C_27
                            x       y       z     vdW  Elec       q    Type
                         _______ _______ _______ _____ _____    ______ ____

>  <TORSDO>
F 17

>  <SCORE>
-6.203

>  <RMSD_LB>
4.390

>  <RMSD_UB>
6.583

$$$$
CHEMBL5280270
 OpenBabel10172500283D

 31 31  0  0  0  0  0  0  0  0999 V2000
  142.0090  137.7730  153.1570 C   0  0  0  0  0  0  0  0  0  0  0  0
  141.8430  137.3800  151.8230 C   0  0  0  0  0  3  0  0  0  0  0  0
  140.5930  137.4600  151.2050 C   0  0  0  0  0  3  0  0  0  0  0  0
  139.4760  137.9150  151.9110 C   0  0  0  0  0  0  0  0  0  0  0  0
  139.6170  138.2650  153.2640 C   0  0  0  0  0  0  0  0  0  0  0  0
  140.8910  138.2600  153.8530 C   0  0  0  0  0  3  0  0  0  0  0  0
  138.5900  138.6310  154.1020 O   0  0  0  0  0  0  0  0  0  0  0  0
  138.7080  138.1630  155.4490 C   0  0  0  0  0  1  0  0  0  0  0  0
  143.3470  137.6070  153.8320 C   0  0  0  0  0  2  0  0  0  0  0  0
  145.2850  139.0810  153.6450 C   0  0  0  0  0  0  0  0  0  0  0  0
  145.8990  138.2850  152.9290 O   0  0  0  0  0  0  0  0  0  0  0  0
  144.0100  138.8550  154.1060 N   0  0  0  0  0  0  0  0  0  0  0  0
  143.5480  139.5510  154.6260 H   0  0  0  0  0  0  0  0  0  0  0  0
  145.8850  140.4070  154.0620 C   0  0  0  0  0  2  0  0  0  0  0  0
  147.3550  140.2430  154.4230 C   0  0  0  0  0  2  0  0  0  0  0  0
  148.2220  141.2910  153.7400 C   0  0  0  0  0  2  0  0  0  0  0  0
  147.3730  142.1080  152.7720 C   0  0  0  0  0  2  0  0  0  0  0  0
  148.0000  142.1210  151.3810 C   0  0  0  0  0  2  0  0  0  0  0  0
  146.9220  142.2270  150.3080 C   0  0  0  0  0  2  0  0  0  0  0  0
  144.6750  141.1640  150.5930 C   0  0  0  0  0  1  0  0  0  0  0  0
  145.5440  142.3590  150.9400 C   0  0  0  0  0  2  0  0  0  0  0  0
  138.2690  138.1520  151.3190 O   0  0  0  0  0  0  0  0  0  0  0  0
  137.5470  137.0310  150.8250 C   0  0  0  0  0  2  0  0  0  0  0  0
  136.6910  136.5050  151.9740 C   0  0  0  0  0  2  0  0  0  0  0  0
  135.3710  135.9550  151.4490 C   0  0  0  0  0  2  0  0  0  0  0  0
  135.5190  135.4460  150.0190 C   0  0  0  0  0  2  0  0  0  0  0  0
  134.9870  134.0880  149.9360 N   0  0  0  0  0  4  0  0  0  0  0  0
  135.7210  133.4240  150.1850 H   0  0  0  0  0  0  0  0  0  0  0  0
  134.6670  133.9180  148.9830 H   0  0  0  0  0  0  0  0  0  0  0  0
  133.8590  133.9240  150.8490 C   0  0  0  0  0  2  0  0  0  0  0  0
  132.5830  133.6960  150.0560 C   0  0  0  0  0  1  0  0  0  0  0  0
  1  9  1  0  0  0  0
  1  6  1  0  0  0  0
  2  1  2  0  0  0  0
  3  2  1  0  0  0  0
  3  4  2  0  0  0  0
  4  5  1  0  0  0  0
  5  6  2  0  0  0  0
  5  7  1  0  0  0  0
  7  8  1  0  0  0  0
  9 12  1  0  0  0  0
 10 14  1  0  0  0  0
 10 12  1  0  0  0  0
 11 10  2  0  0  0  0
 12 13  1  0  0  0  0
 14 15  1  0  0  0  0
 16 15  1  0  0  0  0
 17 16  1  0  0  0  0
 18 17  1  0  0  0  0
 19 21  1  0  0  0  0
 19 18  1  0  0  0  0
 20 21  1  0  0  0  0
 22  4  1  0  0  0  0
 23 22  1  0  0  0  0
 23 24  1  0  0  0  0
 25 24  1  0  0  0  0
 26 25  1  0  0  0  0
 27 26  1  0  0  0  0
 27 28  1  0  0  0  0
 27 30  1  0  0  0  0
 29 27  1  0  0  0  0
 31 30  1  0  0  0  0
M  END
>  <MODEL>
6

>  <REMARK>
 VINA RESULT:    -6.197      4.266      6.342
 INTER + INTRA:         -13.840
 INTER:                 -12.285
 INTRA:                  -1.555
 UNBOUND:                -1.485
  Name = CHEMBL5280270
  20 active torsions:
  status: ('A' for Active; 'I' for Inactive)
    1  A    between atoms: C_1  and  C_2
    2  A    between atoms: C_2  and  C_3
    3  A    between atoms: C_3  and  C_4
    4  A    between atoms: C_4  and  C_5
    5  A    between atoms: C_5  and  C_6
    6  A    between atoms: C_6  and  C_7
    7  A    between atoms: C_7  and  C_8
    8  A    between atoms: C_8  and  C_9
    9  A    between atoms: N_11  and  C_12
   10  A    between atoms: C_12  and  C_13
   11  A    between atoms: C_16  and  O_17
   12  A    between atoms: O_17  and  C_18
   13  A    between atoms: C_18  and  C_19
   14  A    between atoms: C_19  and  C_20
   15  A    between atoms: C_20  and  C_21
   16  A    between atoms: C_21  and  N_22
   17  A    between atoms: N_22  and  C_23
   18  A    between atoms: C_23  and  C_24
   19  A    between atoms: C_25  and  O_26
   20  A    between atoms: O_26  and  C_27
                            x       y       z     vdW  Elec       q    Type
                         _______ _______ _______ _____ _____    ______ ____

>  <TORSDO>
F 17

>  <SCORE>
-6.197

>  <RMSD_LB>
4.266

>  <RMSD_UB>
6.342

$$$$
CHEMBL5280270
 OpenBabel10172500283D

 31 31  0  0  0  0  0  0  0  0999 V2000
  140.5780  138.3930  153.9400 C   0  0  0  0  0  0  0  0  0  0  0  0
  140.0020  138.4560  155.2150 C   0  0  0  0  0  3  0  0  0  0  0  0
  138.6600  138.1200  155.4100 C   0  0  0  0  0  3  0  0  0  0  0  0
  137.8580  137.7330  154.3320 C   0  0  0  0  0  0  0  0  0  0  0  0
  138.4100  137.7130  153.0410 C   0  0  0  0  0  0  0  0  0  0  0  0
  139.7780  137.9720  152.8660 C   0  0  0  0  0  3  0  0  0  0  0  0
  137.7140  137.4510  151.8830 O   0  0  0  0  0  0  0  0  0  0  0  0
  138.2420  138.0670  150.7040 C   0  0  0  0  0  1  0  0  0  0  0  0
  142.0060  138.8330  153.7340 C   0  0  0  0  0  2  0  0  0  0  0  0
  143.5770  139.4180  151.9590 C   0  0  0  0  0  0  0  0  0  0  0  0
  144.5570  139.1070  152.6400 O   0  0  0  0  0  0  0  0  0  0  0  0
  142.2810  139.2820  152.3950 N   0  0  0  0  0  0  0  0  0  0  0  0
  141.5350  139.4920  151.7870 H   0  0  0  0  0  0  0  0  0  0  0  0
  143.7190  139.9620  150.5530 C   0  0  0  0  0  2  0  0  0  0  0  0
  145.0590  139.5590  149.9540 C   0  0  0  0  0  2  0  0  0  0  0  0
  145.6880  140.6990  149.1640 C   0  0  0  0  0  2  0  0  0  0  0  0
  146.6610  141.4640  150.0540 C   0  0  0  0  0  2  0  0  0  0  0  0
  145.9660  142.6450  150.7250 C   0  0  0  0  0  2  0  0  0  0  0  0
  145.9800  142.4840  152.2410 C   0  0  0  0  0  2  0  0  0  0  0  0
  147.4550  141.8370  154.1550 C   0  0  0  0  0  1  0  0  0  0  0  0
  147.1580  141.6290  152.6820 C   0  0  0  0  0  2  0  0  0  0  0  0
  136.5880  137.2550  154.4850 O   0  0  0  0  0  0  0  0  0  0  0  0
  136.3150  136.4750  155.6410 C   0  0  0  0  0  2  0  0  0  0  0  0
  135.4610  135.2910  155.1950 C   0  0  0  0  0  2  0  0  0  0  0  0
  134.1760  135.7760  154.5380 C   0  0  0  0  0  2  0  0  0  0  0  0
  133.9730  135.1180  153.1770 C   0  0  0  0  0  2  0  0  0  0  0  0
  134.8750  135.7340  152.2070 N   0  0  0  0  0  4  0  0  0  0  0  0
  135.8350  135.4580  152.4190 H   0  0  0  0  0  0  0  0  0  0  0  0
  134.7800  136.7480  152.2660 H   0  0  0  0  0  0  0  0  0  0  0  0
  134.5390  135.3070  150.8520 C   0  0  0  0  0  2  0  0  0  0  0  0
  135.1610  136.2580  149.8430 C   0  0  0  0  0  1  0  0  0  0  0  0
  1  2  1  0  0  0  0
  2  3  2  0  0  0  0
  4 22  1  0  0  0  0
  4  3  1  0  0  0  0
  5  4  2  0  0  0  0
  6  5  1  0  0  0  0
  6  1  2  0  0  0  0
  7  5  1  0  0  0  0
  8  7  1  0  0  0  0
  9  1  1  0  0  0  0
 10 12  1  0  0  0  0
 10 11  2  0  0  0  0
 12  9  1  0  0  0  0
 13 12  1  0  0  0  0
 14 10  1  0  0  0  0
 15 14  1  0  0  0  0
 16 15  1  0  0  0  0
 16 17  1  0  0  0  0
 17 18  1  0  0  0  0
 18 19  1  0  0  0  0
 19 21  1  0  0  0  0
 21 20  1  0  0  0  0
 22 23  1  0  0  0  0
 24 23  1  0  0  0  0
 25 24  1  0  0  0  0
 26 25  1  0  0  0  0
 27 29  1  0  0  0  0
 27 28  1  0  0  0  0
 27 26  1  0  0  0  0
 30 27  1  0  0  0  0
 31 30  1  0  0  0  0
M  END
>  <MODEL>
7

>  <REMARK>
 VINA RESULT:    -6.188      3.870      6.086
 INTER + INTRA:         -13.822
 INTER:                 -12.040
 INTRA:                  -1.781
 UNBOUND:                -1.485
  Name = CHEMBL5280270
  20 active torsions:
  status: ('A' for Active; 'I' for Inactive)
    1  A    between atoms: C_1  and  C_2
    2  A    between atoms: C_2  and  C_3
    3  A    between atoms: C_3  and  C_4
    4  A    between atoms: C_4  and  C_5
    5  A    between atoms: C_5  and  C_6
    6  A    between atoms: C_6  and  C_7
    7  A    between atoms: C_7  and  C_8
    8  A    between atoms: C_8  and  C_9
    9  A    between atoms: N_11  and  C_12
   10  A    between atoms: C_12  and  C_13
   11  A    between atoms: C_16  and  O_17
   12  A    between atoms: O_17  and  C_18
   13  A    between atoms: C_18  and  C_19
   14  A    between atoms: C_19  and  C_20
   15  A    between atoms: C_20  and  C_21
   16  A    between atoms: C_21  and  N_22
   17  A    between atoms: N_22  and  C_23
   18  A    between atoms: C_23  and  C_24
   19  A    between atoms: C_25  and  O_26
   20  A    between atoms: O_26  and  C_27
                            x       y       z     vdW  Elec       q    Type
                         _______ _______ _______ _____ _____    ______ ____

>  <TORSDO>
F 17

>  <SCORE>
-6.188

>  <RMSD_LB>
3.870

>  <RMSD_UB>
6.086

$$$$
CHEMBL5280270
 OpenBabel10172500283D

 31 31  0  0  0  0  0  0  0  0999 V2000
  140.7840  138.4240  153.9780 C   0  0  0  0  0  0  0  0  0  0  0  0
  140.9160  138.1980  152.6020 C   0  0  0  0  0  3  0  0  0  0  0  0
  139.8180  137.8000  151.8350 C   0  0  0  0  0  3  0  0  0  0  0  0
  138.5690  137.5990  152.4280 C   0  0  0  0  0  0  0  0  0  0  0  0
  138.4340  137.7740  153.8150 C   0  0  0  0  0  0  0  0  0  0  0  0
  139.5200  138.2520  154.5640 C   0  0  0  0  0  3  0  0  0  0  0  0
  137.2950  137.5150  154.5420 O   0  0  0  0  0  0  0  0  0  0  0  0
  137.2290  138.1570  155.8190 C   0  0  0  0  0  1  0  0  0  0  0  0
  141.9950  138.7770  154.8040 C   0  0  0  0  0  2  0  0  0  0  0  0
  144.3950  139.0410  154.4400 C   0  0  0  0  0  0  0  0  0  0  0  0
  144.4620  140.0250  155.1810 O   0  0  0  0  0  0  0  0  0  0  0  0
  143.2350  138.3360  154.2220 N   0  0  0  0  0  0  0  0  0  0  0  0
  143.2530  137.5240  153.6660 H   0  0  0  0  0  0  0  0  0  0  0  0
  145.6100  138.5030  153.7140 C   0  0  0  0  0  2  0  0  0  0  0  0
  146.7030  138.1230  154.7030 C   0  0  0  0  0  2  0  0  0  0  0  0
  147.6320  139.2930  154.9920 C   0  0  0  0  0  2  0  0  0  0  0  0
  148.5030  139.5690  153.7720 C   0  0  0  0  0  2  0  0  0  0  0  0
  148.5310  141.0610  153.4530 C   0  0  0  0  0  2  0  0  0  0  0  0
  147.3960  141.7840  154.1680 C   0  0  0  0  0  2  0  0  0  0  0  0
  146.8300  142.0450  151.7450 C   0  0  0  0  0  1  0  0  0  0  0  0
  146.3650  142.2880  153.1690 C   0  0  0  0  0  2  0  0  0  0  0  0
  137.4340  137.3560  151.7080 O   0  0  0  0  0  0  0  0  0  0  0  0
  137.4980  136.3560  150.6990 C   0  0  0  0  0  2  0  0  0  0  0  0
  136.0700  135.8840  150.4420 C   0  0  0  0  0  2  0  0  0  0  0  0
  135.8480  134.5000  151.0360 C   0  0  0  0  0  2  0  0  0  0  0  0
  134.4390  134.3670  151.6040 C   0  0  0  0  0  2  0  0  0  0  0  0
  133.7410  133.2880  150.9080 N   0  0  0  0  0  4  0  0  0  0  0  0
  133.3890  132.6190  151.5940 H   0  0  0  0  0  0  0  0  0  0  0  0
  134.3940  132.8290  150.2730 H   0  0  0  0  0  0  0  0  0  0  0  0
  132.6220  133.8170  150.1340 C   0  0  0  0  0  2  0  0  0  0  0  0
  132.8110  133.4820  148.6640 C   0  0  0  0  0  1  0  0  0  0  0  0
  1  6  1  0  0  0  0
  1  9  1  0  0  0  0
  2  1  2  0  0  0  0
  3  4  2  0  0  0  0
  3  2  1  0  0  0  0
  4  5  1  0  0  0  0
  5  7  1  0  0  0  0
  5  6  2  0  0  0  0
  7  8  1  0  0  0  0
 10 11  2  0  0  0  0
 12 10  1  0  0  0  0
 12  9  1  0  0  0  0
 13 12  1  0  0  0  0
 14 10  1  0  0  0  0
 14 15  1  0  0  0  0
 15 16  1  0  0  0  0
 17 16  1  0  0  0  0
 18 17  1  0  0  0  0
 18 19  1  0  0  0  0
 20 21  1  0  0  0  0
 21 19  1  0  0  0  0
 22  4  1  0  0  0  0
 23 22  1  0  0  0  0
 24 23  1  0  0  0  0
 24 25  1  0  0  0  0
 25 26  1  0  0  0  0
 27 28  1  0  0  0  0
 27 26  1  0  0  0  0
 29 27  1  0  0  0  0
 30 27  1  0  0  0  0
 31 30  1  0  0  0  0
M  END
>  <MODEL>
8

>  <REMARK>
 VINA RESULT:    -6.160      4.017      5.946
 INTER + INTRA:         -13.766
 INTER:                 -12.390
 INTRA:                  -1.376
 UNBOUND:                -1.485
  Name = CHEMBL5280270
  20 active torsions:
  status: ('A' for Active; 'I' for Inactive)
    1  A    between atoms: C_1  and  C_2
    2  A    between atoms: C_2  and  C_3
    3  A    between atoms: C_3  and  C_4
    4  A    between atoms: C_4  and  C_5
    5  A    between atoms: C_5  and  C_6
    6  A    between atoms: C_6  and  C_7
    7  A    between atoms: C_7  and  C_8
    8  A    between atoms: C_8  and  C_9
    9  A    between atoms: N_11  and  C_12
   10  A    between atoms: C_12  and  C_13
   11  A    between atoms: C_16  and  O_17
   12  A    between atoms: O_17  and  C_18
   13  A    between atoms: C_18  and  C_19
   14  A    between atoms: C_19  and  C_20
   15  A    between atoms: C_20  and  C_21
   16  A    between atoms: C_21  and  N_22
   17  A    between atoms: N_22  and  C_23
   18  A    between atoms: C_23  and  C_24
   19  A    between atoms: C_25  and  O_26
   20  A    between atoms: O_26  and  C_27
                            x       y       z     vdW  Elec       q    Type
                         _______ _______ _______ _____ _____    ______ ____

>  <TORSDO>
F 17

>  <SCORE>
-6.160

>  <RMSD_LB>
4.017

>  <RMSD_UB>
5.946

$$$$
CHEMBL5280270
 OpenBabel10172500283D

 31 31  0  0  0  0  0  0  0  0999 V2000
  140.5300  138.1950  152.1590 C   0  0  0  0  0  0  0  0  0  0  0  0
  139.3350  137.6800  151.6410 C   0  0  0  0  0  3  0  0  0  0  0  0
  138.2200  137.4970  152.4630 C   0  0  0  0  0  3  0  0  0  0  0  0
  138.2810  137.8030  153.8250 C   0  0  0  0  0  0  0  0  0  0  0  0
  139.4880  138.2720  154.3680 C   0  0  0  0  0  0  0  0  0  0  0  0
  140.5760  138.5310  153.5210 C   0  0  0  0  0  3  0  0  0  0  0  0
  139.7170  138.5170  155.7020 O   0  0  0  0  0  0  0  0  0  0  0  0
  140.4700  137.5080  156.3840 C   0  0  0  0  0  1  0  0  0  0  0  0
  141.7460  138.3130  151.2760 C   0  0  0  0  0  2  0  0  0  0  0  0
  143.5040  140.0020  151.1310 C   0  0  0  0  0  0  0  0  0  0  0  0
  143.2140  140.2940  149.9680 O   0  0  0  0  0  0  0  0  0  0  0  0
  142.8160  139.0700  151.8710 N   0  0  0  0  0  0  0  0  0  0  0  0
  143.0560  138.9200  152.8140 H   0  0  0  0  0  0  0  0  0  0  0  0
  144.6460  140.6750  151.8630 C   0  0  0  0  0  2  0  0  0  0  0  0
  145.0000  139.9090  153.1300 C   0  0  0  0  0  2  0  0  0  0  0  0
  145.9970  140.6730  153.9900 C   0  0  0  0  0  2  0  0  0  0  0  0
  147.2480  139.8270  154.1980 C   0  0  0  0  0  2  0  0  0  0  0  0
  148.4860  140.7110  154.3200 C   0  0  0  0  0  2  0  0  0  0  0  0
  148.2970  142.0080  153.5410 C   0  0  0  0  0  2  0  0  0  0  0  0
  147.8700  142.1680  151.0810 C   0  0  0  0  0  1  0  0  0  0  0  0
  148.9100  141.8960  152.1530 C   0  0  0  0  0  2  0  0  0  0  0  0
  137.1850  137.7840  154.6410 O   0  0  0  0  0  0  0  0  0  0  0  0
  136.9260  136.5880  155.3650 C   0  0  0  0  0  2  0  0  0  0  0  0
  135.5630  136.0740  154.9120 C   0  0  0  0  0  2  0  0  0  0  0  0
  135.7120  135.1400  153.7180 C   0  0  0  0  0  2  0  0  0  0  0  0
  135.1950  135.7960  152.4420 C   0  0  0  0  0  2  0  0  0  0  0  0
  133.7350  135.8500  152.4890 N   0  0  0  0  0  4  0  0  0  0  0  0
  133.4240  136.7730  152.1830 H   0  0  0  0  0  0  0  0  0  0  0  0
  133.4300  135.6750  153.4460 H   0  0  0  0  0  0  0  0  0  0  0  0
  133.1570  134.8330  151.6150 C   0  0  0  0  0  2  0  0  0  0  0  0
  132.8770  135.4290  150.2460 C   0  0  0  0  0  1  0  0  0  0  0  0
  1  6  1  0  0  0  0
  2  1  2  0  0  0  0
  2  3  1  0  0  0  0
  3  4  2  0  0  0  0
  4  5  1  0  0  0  0
  4 22  1  0  0  0  0
  5  7  1  0  0  0  0
  6  5  2  0  0  0  0
  7  8  1  0  0  0  0
  9 12  1  0  0  0  0
  9  1  1  0  0  0  0
 10 14  1  0  0  0  0
 10 12  1  0  0  0  0
 11 10  2  0  0  0  0
 12 13  1  0  0  0  0
 14 15  1  0  0  0  0
 15 16  1  0  0  0  0
 16 17  1  0  0  0  0
 17 18  1  0  0  0  0
 19 18  1  0  0  0  0
 20 21  1  0  0  0  0
 21 19  1  0  0  0  0
 22 23  1  0  0  0  0
 24 23  1  0  0  0  0
 25 24  1  0  0  0  0
 26 27  1  0  0  0  0
 26 25  1  0  0  0  0
 27 29  1  0  0  0  0
 28 27  1  0  0  0  0
 30 27  1  0  0  0  0
 31 30  1  0  0  0  0
M  END
>  <MODEL>
9

>  <REMARK>
 VINA RESULT:    -6.087      4.207      6.463
 INTER + INTRA:         -13.621
 INTER:                 -12.136
 INTRA:                  -1.485
 UNBOUND:                -1.485
  Name = CHEMBL5280270
  20 active torsions:
  status: ('A' for Active; 'I' for Inactive)
    1  A    between atoms: C_1  and  C_2
    2  A    between atoms: C_2  and  C_3
    3  A    between atoms: C_3  and  C_4
    4  A    between atoms: C_4  and  C_5
    5  A    between atoms: C_5  and  C_6
    6  A    between atoms: C_6  and  C_7
    7  A    between atoms: C_7  and  C_8
    8  A    between atoms: C_8  and  C_9
    9  A    between atoms: N_11  and  C_12
   10  A    between atoms: C_12  and  C_13
   11  A    between atoms: C_16  and  O_17
   12  A    between atoms: O_17  and  C_18
   13  A    between atoms: C_18  and  C_19
   14  A    between atoms: C_19  and  C_20
   15  A    between atoms: C_20  and  C_21
   16  A    between atoms: C_21  and  N_22
   17  A    between atoms: N_22  and  C_23
   18  A    between atoms: C_23  and  C_24
   19  A    between atoms: C_25  and  O_26
   20  A    between atoms: O_26  and  C_27
                            x       y       z     vdW  Elec       q    Type
                         _______ _______ _______ _____ _____    ______ ____

>  <TORSDO>
F 17

>  <SCORE>
-6.087

>  <RMSD_LB>
4.207

>  <RMSD_UB>
6.463

$$$$
