CHEMBL1388762
 OpenBabel10162523323D

 22 23  0  0  0  0  0  0  0  0999 V2000
  143.9360  137.7250  152.2540 C   0  0  0  0  0  2  0  0  0  0  0  0
  139.7780  137.3350  151.0490 C   0  0  0  0  0  0  0  0  0  0  0  0
  140.1070  137.7800  152.3350 C   0  0  0  0  0  3  0  0  0  0  0  0
  141.4400  137.9250  152.7330 C   0  0  0  0  0  3  0  0  0  0  0  0
  142.4820  137.6350  151.8510 C   0  0  0  0  0  0  0  0  0  0  0  0
  142.1520  137.1530  150.5750 C   0  0  0  0  0  3  0  0  0  0  0  0
  140.8170  137.0150  150.1610 C   0  0  0  0  0  0  0  0  0  0  0  0
  137.7950  138.2120  150.0780 C   0  0  0  0  0  1  0  0  0  0  0  0
  138.4850  137.1090  150.6560 O   0  0  0  0  0  0  0  0  0  0  0  0
  140.6960  136.5150  148.8890 O   0  0  0  0  0  0  0  0  0  0  0  0
  141.5440  135.4240  148.5520 C   0  0  0  0  0  1  0  0  0  0  0  0
  144.7170  138.8700  151.6310 C   0  0  0  0  0  0  0  0  0  0  0  0
  145.4320  138.7090  150.6440 O   0  0  0  0  0  0  0  0  0  0  0  0
  144.5480  140.0900  152.2490 N   0  0  0  0  0  0  0  0  0  0  0  0
  143.9840  140.1450  153.0540 H   0  0  0  0  0  0  0  0  0  0  0  0
  145.1770  141.2900  151.7460 C   0  0  0  0  0  2  0  0  0  0  0  0
  146.5660  141.5050  152.2900 C   0  0  0  0  0  0  0  0  0  0  0  0
  147.6580  141.6170  151.4160 C   0  0  0  0  0  3  0  0  0  0  0  0
  148.9360  141.8860  151.9050 C   0  0  0  0  0  3  0  0  0  0  0  0
  149.1430  142.0380  153.2730 C   0  0  0  0  0  3  0  0  0  0  0  0
  148.0720  141.9050  154.1570 C   0  0  0  0  0  3  0  0  0  0  0  0
  146.7910  141.6330  153.6680 C   0  0  0  0  0  3  0  0  0  0  0  0
  2  3  1  0  0  0  0
  3  4  2  0  0  0  0
  5  1  1  0  0  0  0
  5  4  1  0  0  0  0
  6  5  2  0  0  0  0
  7  6  1  0  0  0  0
  7  2  2  0  0  0  0
  8  9  1  0  0  0  0
  9  2  1  0  0  0  0
 10  7  1  0  0  0  0
 11 10  1  0  0  0  0
 12 14  1  0  0  0  0
 12  1  1  0  0  0  0
 13 12  2  0  0  0  0
 14 15  1  0  0  0  0
 16 14  1  0  0  0  0
 16 17  1  0  0  0  0
 17 22  1  0  0  0  0
 18 19  1  0  0  0  0
 18 17  2  0  0  0  0
 19 20  2  0  0  0  0
 20 21  1  0  0  0  0
 22 21  2  0  0  0  0
M  END
>  <MODEL>
1

>  <REMARK>
 VINA RESULT:    -6.512      0.000      0.000
 INTER + INTRA:          -9.549
 INTER:                  -8.964
 INTRA:                  -0.585
 UNBOUND:                -0.753
  Name = CHEMBL1388762
  8 active torsions:
  status: ('A' for Active; 'I' for Inactive)
    1  A    between atoms: C_1  and  O_2
    2  A    between atoms: O_2  and  C_3
    3  A    between atoms: C_6  and  C_7
    4  A    between atoms: C_7  and  C_8
    5  A    between atoms: N_10  and  C_11
    6  A    between atoms: C_11  and  C_12
    7  A    between atoms: C_19  and  O_20
    8  A    between atoms: O_20  and  C_21
                            x       y       z     vdW  Elec       q    Type
                         _______ _______ _______ _____ _____    ______ ____

>  <TORSDO>
F 6

>  <SCORE>
-6.512

>  <RMSD_LB>
0.000

>  <RMSD_UB>
0.000

$$$$
CHEMBL1388762
 OpenBabel10162523323D

 22 23  0  0  0  0  0  0  0  0999 V2000
  142.5380  136.7320  150.0260 C   0  0  0  0  0  2  0  0  0  0  0  0
  140.5350  138.2800  153.5590 C   0  0  0  0  0  0  0  0  0  0  0  0
  139.8000  137.9420  152.4160 C   0  0  0  0  0  3  0  0  0  0  0  0
  140.4280  137.4280  151.2760 C   0  0  0  0  0  3  0  0  0  0  0  0
  141.8100  137.2330  151.2520 C   0  0  0  0  0  0  0  0  0  0  0  0
  142.5500  137.6080  152.3840 C   0  0  0  0  0  3  0  0  0  0  0  0
  141.9280  138.1120  153.5380 C   0  0  0  0  0  0  0  0  0  0  0  0
  138.9140  138.1210  155.2880 C   0  0  0  0  0  1  0  0  0  0  0  0
  139.9590  138.8560  154.6600 O   0  0  0  0  0  0  0  0  0  0  0  0
  142.8170  138.4360  154.5320 O   0  0  0  0  0  0  0  0  0  0  0  0
  143.8290  139.3780  154.1960 C   0  0  0  0  0  1  0  0  0  0  0  0
  143.1290  137.8090  149.1320 C   0  0  0  0  0  0  0  0  0  0  0  0
  142.4580  138.3900  148.2810 O   0  0  0  0  0  0  0  0  0  0  0  0
  144.4600  138.0860  149.3600 N   0  0  0  0  0  0  0  0  0  0  0  0
  144.9480  137.5630  150.0370 H   0  0  0  0  0  0  0  0  0  0  0  0
  145.1570  139.1220  148.6330 C   0  0  0  0  0  2  0  0  0  0  0  0
  145.4790  140.3270  149.4780 C   0  0  0  0  0  0  0  0  0  0  0  0
  146.3500  141.3150  148.9980 C   0  0  0  0  0  3  0  0  0  0  0  0
  146.5990  142.4690  149.7430 C   0  0  0  0  0  3  0  0  0  0  0  0
  145.9860  142.6460  150.9800 C   0  0  0  0  0  3  0  0  0  0  0  0
  145.1350  141.6620  151.4820 C   0  0  0  0  0  3  0  0  0  0  0  0
  144.8880  140.5050  150.7380 C   0  0  0  0  0  3  0  0  0  0  0  0
  1  5  1  0  0  0  0
  2  9  1  0  0  0  0
  3  2  2  0  0  0  0
  4  3  1  0  0  0  0
  5  4  2  0  0  0  0
  5  6  1  0  0  0  0
  6  7  2  0  0  0  0
  7  2  1  0  0  0  0
  7 10  1  0  0  0  0
  9  8  1  0  0  0  0
 11 10  1  0  0  0  0
 12 14  1  0  0  0  0
 12  1  1  0  0  0  0
 13 12  2  0  0  0  0
 14 15  1  0  0  0  0
 16 14  1  0  0  0  0
 16 17  1  0  0  0  0
 17 22  1  0  0  0  0
 18 17  2  0  0  0  0
 18 19  1  0  0  0  0
 19 20  2  0  0  0  0
 20 21  1  0  0  0  0
 22 21  2  0  0  0  0
M  END
>  <MODEL>
2

>  <REMARK>
 VINA RESULT:    -6.310      2.523      3.809
 INTER + INTRA:          -9.277
 INTER:                  -8.432
 INTRA:                  -0.844
 UNBOUND:                -0.753
  Name = CHEMBL1388762
  8 active torsions:
  status: ('A' for Active; 'I' for Inactive)
    1  A    between atoms: C_1  and  O_2
    2  A    between atoms: O_2  and  C_3
    3  A    between atoms: C_6  and  C_7
    4  A    between atoms: C_7  and  C_8
    5  A    between atoms: N_10  and  C_11
    6  A    between atoms: C_11  and  C_12
    7  A    between atoms: C_19  and  O_20
    8  A    between atoms: O_20  and  C_21
                            x       y       z     vdW  Elec       q    Type
                         _______ _______ _______ _____ _____    ______ ____

>  <TORSDO>
F 6

>  <SCORE>
-6.310

>  <RMSD_LB>
2.523

>  <RMSD_UB>
3.809

$$$$
CHEMBL1388762
 OpenBabel10162523323D

 22 23  0  0  0  0  0  0  0  0999 V2000
  141.1830  137.4150  150.6910 C   0  0  0  0  0  2  0  0  0  0  0  0
  139.8170  138.2480  154.7320 C   0  0  0  0  0  0  0  0  0  0  0  0
  141.1830  138.2650  154.4260 C   0  0  0  0  0  3  0  0  0  0  0  0
  141.6380  138.0150  153.1270 C   0  0  0  0  0  3  0  0  0  0  0  0
  140.7360  137.7450  152.0970 C   0  0  0  0  0  0  0  0  0  0  0  0
  139.3700  137.6890  152.4120 C   0  0  0  0  0  3  0  0  0  0  0  0
  138.9010  137.9520  153.7100 C   0  0  0  0  0  0  0  0  0  0  0  0
  139.6990  137.4040  156.9500 C   0  0  0  0  0  1  0  0  0  0  0  0
  139.3470  138.4120  156.0090 O   0  0  0  0  0  0  0  0  0  0  0  0
  137.5390  137.8340  153.8270 O   0  0  0  0  0  0  0  0  0  0  0  0
  136.9510  136.6760  153.2470 C   0  0  0  0  0  1  0  0  0  0  0  0
  142.6390  137.7210  150.3800 C   0  0  0  0  0  0  0  0  0  0  0  0
  143.0010  138.8280  149.9890 O   0  0  0  0  0  0  0  0  0  0  0  0
  143.5070  136.6710  150.5840 N   0  0  0  0  0  0  0  0  0  0  0  0
  143.1480  135.8000  150.8700 H   0  0  0  0  0  0  0  0  0  0  0  0
  144.9320  136.8140  150.3870 C   0  0  0  0  0  2  0  0  0  0  0  0
  145.6960  136.9790  151.6760 C   0  0  0  0  0  0  0  0  0  0  0  0
  145.0550  136.7800  152.9080 C   0  0  0  0  0  3  0  0  0  0  0  0
  145.7700  136.8620  154.1030 C   0  0  0  0  0  3  0  0  0  0  0  0
  147.1320  137.1500  154.0840 C   0  0  0  0  0  3  0  0  0  0  0  0
  147.7780  137.3750  152.8690 C   0  0  0  0  0  3  0  0  0  0  0  0
  147.0620  137.2960  151.6710 C   0  0  0  0  0  3  0  0  0  0  0  0
  1  5  1  0  0  0  0
  2  9  1  0  0  0  0
  3  2  1  0  0  0  0
  4  3  2  0  0  0  0
  5  6  2  0  0  0  0
  5  4  1  0  0  0  0
  6  7  1  0  0  0  0
  7 10  1  0  0  0  0
  7  2  2  0  0  0  0
  9  8  1  0  0  0  0
 11 10  1  0  0  0  0
 12 14  1  0  0  0  0
 12  1  1  0  0  0  0
 13 12  2  0  0  0  0
 14 15  1  0  0  0  0
 16 14  1  0  0  0  0
 16 17  1  0  0  0  0
 17 18  1  0  0  0  0
 18 19  2  0  0  0  0
 20 19  1  0  0  0  0
 21 20  2  0  0  0  0
 22 17  2  0  0  0  0
 22 21  1  0  0  0  0
M  END
>  <MODEL>
3

>  <REMARK>
 VINA RESULT:    -6.014      3.237      4.600
 INTER + INTRA:          -8.877
 INTER:                  -8.084
 INTRA:                  -0.793
 UNBOUND:                -0.753
  Name = CHEMBL1388762
  8 active torsions:
  status: ('A' for Active; 'I' for Inactive)
    1  A    between atoms: C_1  and  O_2
    2  A    between atoms: O_2  and  C_3
    3  A    between atoms: C_6  and  C_7
    4  A    between atoms: C_7  and  C_8
    5  A    between atoms: N_10  and  C_11
    6  A    between atoms: C_11  and  C_12
    7  A    between atoms: C_19  and  O_20
    8  A    between atoms: O_20  and  C_21
                            x       y       z     vdW  Elec       q    Type
                         _______ _______ _______ _____ _____    ______ ____

>  <TORSDO>
F 6

>  <SCORE>
-6.014

>  <RMSD_LB>
3.237

>  <RMSD_UB>
4.600

$$$$
CHEMBL1388762
 OpenBabel10162523323D

 22 23  0  0  0  0  0  0  0  0999 V2000
  138.2790  137.4930  151.2020 C   0  0  0  0  0  2  0  0  0  0  0  0
  138.1280  138.5800  146.9970 C   0  0  0  0  0  0  0  0  0  0  0  0
  137.1640  139.0620  147.8910 C   0  0  0  0  0  3  0  0  0  0  0  0
  137.2080  138.7340  149.2500 C   0  0  0  0  0  3  0  0  0  0  0  0
  138.2220  137.9180  149.7530 C   0  0  0  0  0  0  0  0  0  0  0  0
  139.1650  137.4040  148.8500 C   0  0  0  0  0  3  0  0  0  0  0  0
  139.1380  137.7370  147.4860 C   0  0  0  0  0  0  0  0  0  0  0  0
  136.9870  139.6290  145.1970 C   0  0  0  0  0  1  0  0  0  0  0  0
  138.0670  138.8200  145.6490 O   0  0  0  0  0  0  0  0  0  0  0  0
  140.1300  137.1250  146.7610 O   0  0  0  0  0  0  0  0  0  0  0  0
  141.3800  137.8000  146.7000 C   0  0  0  0  0  1  0  0  0  0  0  0
  137.1160  136.6390  151.6790 C   0  0  0  0  0  0  0  0  0  0  0  0
  136.4860  136.9090  152.7000 O   0  0  0  0  0  0  0  0  0  0  0  0
  136.8210  135.5600  150.8750 N   0  0  0  0  0  0  0  0  0  0  0  0
  137.3840  135.3820  150.0870 H   0  0  0  0  0  0  0  0  0  0  0  0
  135.7090  134.6810  151.1580 C   0  0  0  0  0  2  0  0  0  0  0  0
  134.7320  134.5730  150.0160 C   0  0  0  0  0  0  0  0  0  0  0  0
  134.1550  133.3350  149.6940 C   0  0  0  0  0  3  0  0  0  0  0  0
  133.1970  133.2370  148.6850 C   0  0  0  0  0  3  0  0  0  0  0  0
  132.8070  134.3730  147.9800 C   0  0  0  0  0  3  0  0  0  0  0  0
  133.3890  135.6060  148.2720 C   0  0  0  0  0  3  0  0  0  0  0  0
  134.3520  135.7050  149.2810 C   0  0  0  0  0  3  0  0  0  0  0  0
  1 12  1  0  0  0  0
  2  7  2  0  0  0  0
  2  3  1  0  0  0  0
  3  4  2  0  0  0  0
  4  5  1  0  0  0  0
  5  1  1  0  0  0  0
  6  5  2  0  0  0  0
  7  6  1  0  0  0  0
  8  9  1  0  0  0  0
  9  2  1  0  0  0  0
 10  7  1  0  0  0  0
 11 10  1  0  0  0  0
 12 13  2  0  0  0  0
 14 16  1  0  0  0  0
 14 12  1  0  0  0  0
 15 14  1  0  0  0  0
 17 16  1  0  0  0  0
 18 17  1  0  0  0  0
 19 18  2  0  0  0  0
 20 21  2  0  0  0  0
 20 19  1  0  0  0  0
 21 22  1  0  0  0  0
 22 17  2  0  0  0  0
M  END
>  <MODEL>
4

>  <REMARK>
 VINA RESULT:    -5.578      6.571     10.299
 INTER + INTRA:          -8.287
 INTER:                  -7.422
 INTRA:                  -0.865
 UNBOUND:                -0.753
  Name = CHEMBL1388762
  8 active torsions:
  status: ('A' for Active; 'I' for Inactive)
    1  A    between atoms: C_1  and  O_2
    2  A    between atoms: O_2  and  C_3
    3  A    between atoms: C_6  and  C_7
    4  A    between atoms: C_7  and  C_8
    5  A    between atoms: N_10  and  C_11
    6  A    between atoms: C_11  and  C_12
    7  A    between atoms: C_19  and  O_20
    8  A    between atoms: O_20  and  C_21
                            x       y       z     vdW  Elec       q    Type
                         _______ _______ _______ _____ _____    ______ ____

>  <TORSDO>
F 6

>  <SCORE>
-5.578

>  <RMSD_LB>
6.571

>  <RMSD_UB>
10.299

$$$$
CHEMBL1388762
 OpenBabel10162523323D

 22 23  0  0  0  0  0  0  0  0999 V2000
  137.5220  137.9020  150.1120 C   0  0  0  0  0  2  0  0  0  0  0  0
  134.9600  134.4220  149.6530 C   0  0  0  0  0  0  0  0  0  0  0  0
  135.1940  135.2800  148.5720 C   0  0  0  0  0  3  0  0  0  0  0  0
  136.0280  136.3960  148.6990 C   0  0  0  0  0  3  0  0  0  0  0  0
  136.6570  136.6800  149.9130 C   0  0  0  0  0  0  0  0  0  0  0  0
  136.3910  135.8420  151.0060 C   0  0  0  0  0  3  0  0  0  0  0  0
  135.5660  134.7110  150.8860 C   0  0  0  0  0  0  0  0  0  0  0  0
  132.7970  133.6470  149.0510 C   0  0  0  0  0  1  0  0  0  0  0  0
  134.0880  133.3670  149.5810 O   0  0  0  0  0  0  0  0  0  0  0  0
  135.4140  134.0270  152.0650 O   0  0  0  0  0  0  0  0  0  0  0  0
  134.6790  134.6830  153.0910 C   0  0  0  0  0  1  0  0  0  0  0  0
  138.9120  137.8260  149.5030 C   0  0  0  0  0  0  0  0  0  0  0  0
  139.2610  138.5630  148.5830 O   0  0  0  0  0  0  0  0  0  0  0  0
  139.7420  136.8830  150.0690 N   0  0  0  0  0  0  0  0  0  0  0  0
  139.3910  136.3030  150.7830 H   0  0  0  0  0  0  0  0  0  0  0  0
  141.1130  136.7210  149.6410 C   0  0  0  0  0  2  0  0  0  0  0  0
  142.1130  137.0170  150.7290 C   0  0  0  0  0  0  0  0  0  0  0  0
  141.6800  137.4710  151.9830 C   0  0  0  0  0  3  0  0  0  0  0  0
  142.5910  137.6800  153.0190 C   0  0  0  0  0  3  0  0  0  0  0  0
  143.9480  137.4440  152.8130 C   0  0  0  0  0  3  0  0  0  0  0  0
  144.3970  137.0150  151.5640 C   0  0  0  0  0  3  0  0  0  0  0  0
  143.4850  136.8080  150.5250 C   0  0  0  0  0  3  0  0  0  0  0  0
  2  7  1  0  0  0  0
  3  4  1  0  0  0  0
  3  2  2  0  0  0  0
  4  5  2  0  0  0  0
  5  1  1  0  0  0  0
  5  6  1  0  0  0  0
  7  6  2  0  0  0  0
  7 10  1  0  0  0  0
  8  9  1  0  0  0  0
  9  2  1  0  0  0  0
 10 11  1  0  0  0  0
 12 14  1  0  0  0  0
 12  1  1  0  0  0  0
 13 12  2  0  0  0  0
 14 15  1  0  0  0  0
 16 14  1  0  0  0  0
 16 17  1  0  0  0  0
 17 18  1  0  0  0  0
 18 19  2  0  0  0  0
 20 19  1  0  0  0  0
 21 20  2  0  0  0  0
 22 17  2  0  0  0  0
 22 21  1  0  0  0  0
M  END
>  <MODEL>
5

>  <REMARK>
 VINA RESULT:    -5.550      4.023      6.640
 INTER + INTRA:          -8.249
 INTER:                  -7.636
 INTRA:                  -0.613
 UNBOUND:                -0.753
  Name = CHEMBL1388762
  8 active torsions:
  status: ('A' for Active; 'I' for Inactive)
    1  A    between atoms: C_1  and  O_2
    2  A    between atoms: O_2  and  C_3
    3  A    between atoms: C_6  and  C_7
    4  A    between atoms: C_7  and  C_8
    5  A    between atoms: N_10  and  C_11
    6  A    between atoms: C_11  and  C_12
    7  A    between atoms: C_19  and  O_20
    8  A    between atoms: O_20  and  C_21
                            x       y       z     vdW  Elec       q    Type
                         _______ _______ _______ _____ _____    ______ ____

>  <TORSDO>
F 6

>  <SCORE>
-5.550

>  <RMSD_LB>
4.023

>  <RMSD_UB>
6.640

$$$$
CHEMBL1388762
 OpenBabel10162523323D

 22 23  0  0  0  0  0  0  0  0999 V2000
  133.5760  137.3900  145.5000 C   0  0  0  0  0  2  0  0  0  0  0  0
  135.0790  133.3140  145.3770 C   0  0  0  0  0  0  0  0  0  0  0  0
  135.5130  134.2610  144.4410 C   0  0  0  0  0  3  0  0  0  0  0  0
  135.0510  135.5800  144.4770 C   0  0  0  0  0  3  0  0  0  0  0  0
  134.1440  135.9910  145.4550 C   0  0  0  0  0  0  0  0  0  0  0  0
  133.6800  135.0320  146.3690 C   0  0  0  0  0  3  0  0  0  0  0  0
  134.1470  133.7080  146.3500 C   0  0  0  0  0  0  0  0  0  0  0  0
  135.8750  131.5120  144.0500 C   0  0  0  0  0  1  0  0  0  0  0  0
  135.4530  131.9970  145.3200 O   0  0  0  0  0  0  0  0  0  0  0  0
  133.5660  132.9170  147.3090 O   0  0  0  0  0  0  0  0  0  0  0  0
  132.7850  133.5830  148.2940 C   0  0  0  0  0  1  0  0  0  0  0  0
  134.6010  138.5100  145.5630 C   0  0  0  0  0  0  0  0  0  0  0  0
  134.5520  139.4810  144.8110 O   0  0  0  0  0  0  0  0  0  0  0  0
  135.5700  138.3540  146.5310 N   0  0  0  0  0  0  0  0  0  0  0  0
  135.5700  137.5380  147.0810 H   0  0  0  0  0  0  0  0  0  0  0  0
  136.5860  139.3570  146.7580 C   0  0  0  0  0  2  0  0  0  0  0  0
  137.3380  139.1590  148.0490 C   0  0  0  0  0  0  0  0  0  0  0  0
  137.9110  140.2560  148.7090 C   0  0  0  0  0  3  0  0  0  0  0  0
  138.5470  140.0920  149.9400 C   0  0  0  0  0  3  0  0  0  0  0  0
  138.6270  138.8310  150.5230 C   0  0  0  0  0  3  0  0  0  0  0  0
  138.0830  137.7260  149.8680 C   0  0  0  0  0  3  0  0  0  0  0  0
  137.4470  137.8890  148.6330 C   0  0  0  0  0  3  0  0  0  0  0  0
  1 12  1  0  0  0  0
  2  7  1  0  0  0  0
  3  4  1  0  0  0  0
  3  2  2  0  0  0  0
  4  5  2  0  0  0  0
  5  1  1  0  0  0  0
  5  6  1  0  0  0  0
  7  6  2  0  0  0  0
  7 10  1  0  0  0  0
  8  9  1  0  0  0  0
  9  2  1  0  0  0  0
 10 11  1  0  0  0  0
 12 14  1  0  0  0  0
 13 12  2  0  0  0  0
 14 16  1  0  0  0  0
 14 15  1  0  0  0  0
 16 17  1  0  0  0  0
 17 22  2  0  0  0  0
 17 18  1  0  0  0  0
 18 19  2  0  0  0  0
 19 20  1  0  0  0  0
 21 20  2  0  0  0  0
 22 21  1  0  0  0  0
M  END
>  <MODEL>
6

>  <REMARK>
 VINA RESULT:    -5.480      7.511     10.318
 INTER + INTRA:          -8.155
 INTER:                  -7.568
 INTRA:                  -0.588
 UNBOUND:                -0.753
  Name = CHEMBL1388762
  8 active torsions:
  status: ('A' for Active; 'I' for Inactive)
    1  A    between atoms: C_1  and  O_2
    2  A    between atoms: O_2  and  C_3
    3  A    between atoms: C_6  and  C_7
    4  A    between atoms: C_7  and  C_8
    5  A    between atoms: N_10  and  C_11
    6  A    between atoms: C_11  and  C_12
    7  A    between atoms: C_19  and  O_20
    8  A    between atoms: O_20  and  C_21
                            x       y       z     vdW  Elec       q    Type
                         _______ _______ _______ _____ _____    ______ ____

>  <TORSDO>
F 6

>  <SCORE>
-5.480

>  <RMSD_LB>
7.511

>  <RMSD_UB>
10.318

$$$$
CHEMBL1388762
 OpenBabel10162523323D

 22 23  0  0  0  0  0  0  0  0999 V2000
  135.2800  135.8970  144.5360 C   0  0  0  0  0  2  0  0  0  0  0  0
  134.5190  138.3010  140.9960 C   0  0  0  0  0  0  0  0  0  0  0  0
  135.2810  137.1300  140.9100 C   0  0  0  0  0  3  0  0  0  0  0  0
  135.5220  136.3370  142.0360 C   0  0  0  0  0  3  0  0  0  0  0  0
  135.0010  136.6930  143.2820 C   0  0  0  0  0  0  0  0  0  0  0  0
  134.2700  137.8860  143.3750 C   0  0  0  0  0  3  0  0  0  0  0  0
  134.0110  138.6830  142.2480 C   0  0  0  0  0  0  0  0  0  0  0  0
  133.1580  138.9210  139.1500 C   0  0  0  0  0  1  0  0  0  0  0  0
  134.3310  139.1380  139.9270 O   0  0  0  0  0  0  0  0  0  0  0  0
  133.2950  139.8170  142.5410 O   0  0  0  0  0  0  0  0  0  0  0  0
  132.7560  139.9060  143.8540 C   0  0  0  0  0  1  0  0  0  0  0  0
  134.6910  136.4660  145.8160 C   0  0  0  0  0  0  0  0  0  0  0  0
  135.3340  137.2100  146.5530 O   0  0  0  0  0  0  0  0  0  0  0  0
  133.3880  136.0940  146.0690 N   0  0  0  0  0  0  0  0  0  0  0  0
  132.9390  135.4720  145.4530 H   0  0  0  0  0  0  0  0  0  0  0  0
  132.6640  136.5940  147.2160 C   0  0  0  0  0  2  0  0  0  0  0  0
  132.7490  135.6830  148.4140 C   0  0  0  0  0  0  0  0  0  0  0  0
  132.7840  134.2910  148.2430 C   0  0  0  0  0  3  0  0  0  0  0  0
  132.9330  133.4430  149.3400 C   0  0  0  0  0  3  0  0  0  0  0  0
  133.0420  133.9730  150.6230 C   0  0  0  0  0  3  0  0  0  0  0  0
  132.9840  135.3540  150.8120 C   0  0  0  0  0  3  0  0  0  0  0  0
  132.8320  136.2050  149.7130 C   0  0  0  0  0  3  0  0  0  0  0  0
  1 12  1  0  0  0  0
  2  7  1  0  0  0  0
  3  2  2  0  0  0  0
  3  4  1  0  0  0  0
  4  5  2  0  0  0  0
  5  6  1  0  0  0  0
  5  1  1  0  0  0  0
  7 10  1  0  0  0  0
  7  6  2  0  0  0  0
  8  9  1  0  0  0  0
  9  2  1  0  0  0  0
 10 11  1  0  0  0  0
 12 14  1  0  0  0  0
 12 13  2  0  0  0  0
 14 16  1  0  0  0  0
 15 14  1  0  0  0  0
 16 17  1  0  0  0  0
 17 22  1  0  0  0  0
 18 17  2  0  0  0  0
 18 19  1  0  0  0  0
 19 20  2  0  0  0  0
 20 21  1  0  0  0  0
 22 21  2  0  0  0  0
M  END
>  <MODEL>
7

>  <REMARK>
 VINA RESULT:    -5.293     11.581     13.424
 INTER + INTRA:          -7.903
 INTER:                  -7.438
 INTRA:                  -0.465
 UNBOUND:                -0.753
  Name = CHEMBL1388762
  8 active torsions:
  status: ('A' for Active; 'I' for Inactive)
    1  A    between atoms: C_1  and  O_2
    2  A    between atoms: O_2  and  C_3
    3  A    between atoms: C_6  and  C_7
    4  A    between atoms: C_7  and  C_8
    5  A    between atoms: N_10  and  C_11
    6  A    between atoms: C_11  and  C_12
    7  A    between atoms: C_19  and  O_20
    8  A    between atoms: O_20  and  C_21
                            x       y       z     vdW  Elec       q    Type
                         _______ _______ _______ _____ _____    ______ ____

>  <TORSDO>
F 6

>  <SCORE>
-5.293

>  <RMSD_LB>
11.581

>  <RMSD_UB>
13.424

$$$$
CHEMBL1388762
 OpenBabel10162523323D

 22 23  0  0  0  0  0  0  0  0999 V2000
  136.4600  134.7090  142.9390 C   0  0  0  0  0  2  0  0  0  0  0  0
  134.0300  138.3110  142.8700 C   0  0  0  0  0  0  0  0  0  0  0  0
  134.2360  137.6160  144.0680 C   0  0  0  0  0  3  0  0  0  0  0  0
  135.0280  136.4640  144.1100 C   0  0  0  0  0  3  0  0  0  0  0  0
  135.6410  135.9780  142.9530 C   0  0  0  0  0  0  0  0  0  0  0  0
  135.4020  136.6530  141.7460 C   0  0  0  0  0  3  0  0  0  0  0  0
  134.6190  137.8190  141.6950 C   0  0  0  0  0  0  0  0  0  0  0  0
  132.6720  139.8930  144.0100 C   0  0  0  0  0  1  0  0  0  0  0  0
  133.1970  139.3970  142.7830 O   0  0  0  0  0  0  0  0  0  0  0  0
  134.4870  138.3250  140.4270 O   0  0  0  0  0  0  0  0  0  0  0  0
  133.5710  137.6570  139.5680 C   0  0  0  0  0  1  0  0  0  0  0  0
  136.7390  134.0970  144.3010 C   0  0  0  0  0  0  0  0  0  0  0  0
  137.7500  134.3720  144.9440 O   0  0  0  0  0  0  0  0  0  0  0  0
  135.7710  133.2280  144.7560 N   0  0  0  0  0  0  0  0  0  0  0  0
  134.9990  133.0270  144.1790 H   0  0  0  0  0  0  0  0  0  0  0  0
  135.8590  132.6050  146.0570 C   0  0  0  0  0  2  0  0  0  0  0  0
  134.8410  133.1290  147.0370 C   0  0  0  0  0  0  0  0  0  0  0  0
  134.0730  134.2600  146.7220 C   0  0  0  0  0  3  0  0  0  0  0  0
  133.0800  134.7110  147.5910 C   0  0  0  0  0  3  0  0  0  0  0  0
  132.8450  134.0430  148.7900 C   0  0  0  0  0  3  0  0  0  0  0  0
  133.6160  132.9320  149.1290 C   0  0  0  0  0  3  0  0  0  0  0  0
  134.6140  132.4810  148.2590 C   0  0  0  0  0  3  0  0  0  0  0  0
  1  5  1  0  0  0  0
  1 12  1  0  0  0  0
  2  3  1  0  0  0  0
  3  4  2  0  0  0  0
  5  4  1  0  0  0  0
  6  5  2  0  0  0  0
  7  6  1  0  0  0  0
  7  2  2  0  0  0  0
  9  2  1  0  0  0  0
  9  8  1  0  0  0  0
 10  7  1  0  0  0  0
 11 10  1  0  0  0  0
 12 14  1  0  0  0  0
 12 13  2  0  0  0  0
 14 16  1  0  0  0  0
 15 14  1  0  0  0  0
 16 17  1  0  0  0  0
 17 22  1  0  0  0  0
 18 17  2  0  0  0  0
 18 19  1  0  0  0  0
 19 20  2  0  0  0  0
 20 21  1  0  0  0  0
 22 21  2  0  0  0  0
M  END
>  <MODEL>
8

>  <REMARK>
 VINA RESULT:    -5.218     11.745     13.145
 INTER + INTRA:          -7.801
 INTER:                  -7.057
 INTRA:                  -0.744
 UNBOUND:                -0.753
  Name = CHEMBL1388762
  8 active torsions:
  status: ('A' for Active; 'I' for Inactive)
    1  A    between atoms: C_1  and  O_2
    2  A    between atoms: O_2  and  C_3
    3  A    between atoms: C_6  and  C_7
    4  A    between atoms: C_7  and  C_8
    5  A    between atoms: N_10  and  C_11
    6  A    between atoms: C_11  and  C_12
    7  A    between atoms: C_19  and  O_20
    8  A    between atoms: O_20  and  C_21
                            x       y       z     vdW  Elec       q    Type
                         _______ _______ _______ _____ _____    ______ ____

>  <TORSDO>
F 6

>  <SCORE>
-5.218

>  <RMSD_LB>
11.745

>  <RMSD_UB>
13.145

$$$$
CHEMBL1388762
 OpenBabel10162523323D

 22 23  0  0  0  0  0  0  0  0999 V2000
  136.3150  134.5940  143.4090 C   0  0  0  0  0  2  0  0  0  0  0  0
  134.8390  138.6710  143.6940 C   0  0  0  0  0  0  0  0  0  0  0  0
  134.7390  137.9610  142.4910 C   0  0  0  0  0  3  0  0  0  0  0  0
  135.1950  136.6430  142.3870 C   0  0  0  0  0  3  0  0  0  0  0  0
  135.7600  135.9970  143.4880 C   0  0  0  0  0  0  0  0  0  0  0  0
  135.8940  136.7210  144.6820 C   0  0  0  0  0  3  0  0  0  0  0  0
  135.4280  138.0410  144.8010 C   0  0  0  0  0  0  0  0  0  0  0  0
  134.1490  140.6600  142.5920 C   0  0  0  0  0  1  0  0  0  0  0  0
  134.4720  139.9870  143.8040 O   0  0  0  0  0  0  0  0  0  0  0  0
  135.6630  138.5870  146.0370 O   0  0  0  0  0  0  0  0  0  0  0  0
  136.9210  139.2260  146.2210 C   0  0  0  0  0  1  0  0  0  0  0  0
  136.5400  133.9030  144.7430 C   0  0  0  0  0  0  0  0  0  0  0  0
  137.6320  133.9140  145.3060 O   0  0  0  0  0  0  0  0  0  0  0  0
  135.4270  133.2830  145.2690 N   0  0  0  0  0  0  0  0  0  0  0  0
  134.5890  133.2850  144.7530 H   0  0  0  0  0  0  0  0  0  0  0  0
  135.4580  132.6280  146.5570 C   0  0  0  0  0  2  0  0  0  0  0  0
  134.5660  133.2860  147.5790 C   0  0  0  0  0  0  0  0  0  0  0  0
  133.9590  134.5180  147.2980 C   0  0  0  0  0  3  0  0  0  0  0  0
  133.0760  135.1000  148.2090 C   0  0  0  0  0  3  0  0  0  0  0  0
  132.7950  134.4630  149.4140 C   0  0  0  0  0  3  0  0  0  0  0  0
  133.4100  133.2480  149.7180 C   0  0  0  0  0  3  0  0  0  0  0  0
  134.2960  132.6660  148.8070 C   0  0  0  0  0  3  0  0  0  0  0  0
  1  5  1  0  0  0  0
  1 12  1  0  0  0  0
  2  9  1  0  0  0  0
  2  7  1  0  0  0  0
  3  2  2  0  0  0  0
  4  3  1  0  0  0  0
  4  5  2  0  0  0  0
  5  6  1  0  0  0  0
  6  7  2  0  0  0  0
  7 10  1  0  0  0  0
  8  9  1  0  0  0  0
 10 11  1  0  0  0  0
 12 14  1  0  0  0  0
 12 13  2  0  0  0  0
 14 16  1  0  0  0  0
 15 14  1  0  0  0  0
 16 17  1  0  0  0  0
 17 22  1  0  0  0  0
 18 17  2  0  0  0  0
 18 19  1  0  0  0  0
 19 20  2  0  0  0  0
 20 21  1  0  0  0  0
 22 21  2  0  0  0  0
M  END
>  <MODEL>
9

>  <REMARK>
 VINA RESULT:    -5.141      9.802     12.557
 INTER + INTRA:          -7.698
 INTER:                  -6.944
 INTRA:                  -0.753
 UNBOUND:                -0.753
  Name = CHEMBL1388762
  8 active torsions:
  status: ('A' for Active; 'I' for Inactive)
    1  A    between atoms: C_1  and  O_2
    2  A    between atoms: O_2  and  C_3
    3  A    between atoms: C_6  and  C_7
    4  A    between atoms: C_7  and  C_8
    5  A    between atoms: N_10  and  C_11
    6  A    between atoms: C_11  and  C_12
    7  A    between atoms: C_19  and  O_20
    8  A    between atoms: O_20  and  C_21
                            x       y       z     vdW  Elec       q    Type
                         _______ _______ _______ _____ _____    ______ ____

>  <TORSDO>
F 6

>  <SCORE>
-5.141

>  <RMSD_LB>
9.802

>  <RMSD_UB>
12.557

$$$$
