CHEMBL126095
 OpenBabel10172500363D

 26 27  0  0  0  0  0  0  0  0999 V2000
  143.5610  138.5330  153.4470 N   0  0  0  0  0  0  0  0  0  0  0  0
  144.6260  137.7120  153.7330 C   0  0  0  0  0  0  0  0  0  0  0  0
  144.4990  136.5870  154.2030 O   0  0  0  0  0  0  0  0  0  0  0  0
  143.7240  139.4170  153.0470 H   0  0  0  0  0  0  0  0  0  0  0  0
  142.2030  138.1160  153.7220 C   0  0  0  0  0  2  0  0  0  0  0  0
  139.2990  137.5720  151.2790 C   0  0  0  0  0  0  0  0  0  0  0  0
  140.0310  137.8860  152.4370 C   0  0  0  0  0  3  0  0  0  0  0  0
  141.4300  137.7360  152.4790 C   0  0  0  0  0  0  0  0  0  0  0  0
  142.0900  137.2550  151.3440 C   0  0  0  0  0  3  0  0  0  0  0  0
  141.3730  136.9340  150.1900 C   0  0  0  0  0  3  0  0  0  0  0  0
  139.9880  137.0910  150.1600 C   0  0  0  0  0  0  0  0  0  0  0  0
  137.1430  136.9190  152.0350 C   0  0  0  0  0  1  0  0  0  0  0  0
  137.9400  137.7080  151.1610 O   0  0  0  0  0  0  0  0  0  0  0  0
  139.2870  136.7740  149.0240 O   0  0  0  0  0  0  0  0  0  0  0  0
  139.2920  135.8950  148.7000 H   0  0  0  0  0  0  0  0  0  0  0  0
  145.9740  138.3400  153.4280 C   0  0  0  0  0  2  0  0  0  0  0  0
  147.0990  137.3770  153.7870 C   0  0  0  0  0  2  0  0  0  0  0  0
  148.4570  138.0630  153.8240 C   0  0  0  0  0  2  0  0  0  0  0  0
  148.3670  139.4250  153.1420 C   0  0  0  0  0  2  0  0  0  0  0  0
  148.6480  140.5440  154.1330 C   0  0  0  0  0  2  0  0  0  0  0  0
  148.1690  141.8820  153.5820 C   0  0  0  0  0  2  0  0  0  0  0  0
  146.6630  142.0170  153.7620 C   0  0  0  0  0  2  0  0  0  0  0  0
  145.9670  142.2400  152.4240 C   0  0  0  0  0  2  0  0  0  0  0  0
  146.9440  142.2030  151.2890 C   0  0  0  0  0  3  0  0  0  0  0  0
  146.5900  142.7620  149.9320 C   0  0  0  0  0  2  0  0  0  0  0  0
  146.7040  141.2780  150.1250 C   0  0  0  0  0  2  0  0  0  0  0  0
  1  5  1  0  0  0  0
  1  2  1  0  0  0  0
  2  3  2  0  0  0  0
  4  1  1  0  0  0  0
  6  7  1  0  0  0  0
  7  8  2  0  0  0  0
  8  5  1  0  0  0  0
  9  8  1  0  0  0  0
 10  9  2  0  0  0  0
 11 10  1  0  0  0  0
 11  6  2  0  0  0  0
 13  6  1  0  0  0  0
 13 12  1  0  0  0  0
 14 11  1  0  0  0  0
 15 14  1  0  0  0  0
 16  2  1  0  0  0  0
 16 17  1  0  0  0  0
 17 18  1  0  0  0  0
 19 18  1  0  0  0  0
 19 20  1  0  0  0  0
 21 22  1  0  0  0  0
 21 20  1  0  0  0  0
 23 22  1  0  0  0  0
 24 23  1  0  0  0  0
 25 26  1  0  0  0  0
 25 24  1  0  0  0  0
 26 24  1  0  0  0  0
M  END
>  <MODEL>
1

>  <REMARK>
 VINA RESULT:    -5.655      0.000      0.000
 INTER + INTRA:         -12.378
 INTER:                 -10.908
 INTRA:                  -1.470
 UNBOUND:                -2.591
  Name = CHEMBL126095
  14 active torsions:
  status: ('A' for Active; 'I' for Inactive)
    1  A    between atoms: C_1  and  O_2
    2  A    between atoms: O_2  and  C_3
    3  A    between atoms: C_5  and  C_6
    4  A    between atoms: C_6  and  N_7
    5  A    between atoms: C_8  and  C_10
    6  A    between atoms: C_10  and  C_11
    7  A    between atoms: C_11  and  C_12
    8  A    between atoms: C_12  and  C_13
    9  A    between atoms: C_13  and  C_14
   10  A    between atoms: C_14  and  C_15
   11  A    between atoms: C_15  and  C_16
   12  A    between atoms: C_16  and  C_17
   13  A    between atoms: C_17  and  C_18
   14  A    between atoms: C_23  and  O_24
                            x       y       z     vdW  Elec       q    Type
                         _______ _______ _______ _____ _____    ______ ____

>  <TORSDO>
F 13

>  <SCORE>
-5.655

>  <RMSD_LB>
0.000

>  <RMSD_UB>
0.000

$$$$
CHEMBL126095
 OpenBabel10172500363D

 26 27  0  0  0  0  0  0  0  0999 V2000
  144.6220  139.1060  153.6060 N   0  0  0  0  0  0  0  0  0  0  0  0
  145.7320  139.3690  154.3730 C   0  0  0  0  0  0  0  0  0  0  0  0
  146.2310  138.5470  155.1330 O   0  0  0  0  0  0  0  0  0  0  0  0
  144.2800  139.7970  152.9940 H   0  0  0  0  0  0  0  0  0  0  0  0
  143.9470  137.8280  153.6820 C   0  0  0  0  0  2  0  0  0  0  0  0
  140.2040  138.5210  154.1350 C   0  0  0  0  0  0  0  0  0  0  0  0
  141.5810  138.3970  154.3880 C   0  0  0  0  0  3  0  0  0  0  0  0
  142.4640  137.9170  153.4020 C   0  0  0  0  0  0  0  0  0  0  0  0
  141.9460  137.5500  152.1560 C   0  0  0  0  0  3  0  0  0  0  0  0
  140.5790  137.6620  151.8950 C   0  0  0  0  0  3  0  0  0  0  0  0
  139.7160  138.1440  152.8780 C   0  0  0  0  0  0  0  0  0  0  0  0
  138.8540  138.0840  156.0400 C   0  0  0  0  0  1  0  0  0  0  0  0
  139.2900  138.9950  155.0390 O   0  0  0  0  0  0  0  0  0  0  0  0
  138.3730  138.2520  152.6180 O   0  0  0  0  0  0  0  0  0  0  0  0
  137.8370  138.8130  153.1440 H   0  0  0  0  0  0  0  0  0  0  0  0
  146.2680  140.7780  154.1990 C   0  0  0  0  0  2  0  0  0  0  0  0
  147.7910  140.7750  154.2620 C   0  0  0  0  0  2  0  0  0  0  0  0
  148.4150  141.6310  153.1700 C   0  0  0  0  0  2  0  0  0  0  0  0
  147.8580  141.2220  151.8090 C   0  0  0  0  0  2  0  0  0  0  0  0
  147.7850  142.4190  150.8740 C   0  0  0  0  0  2  0  0  0  0  0  0
  146.4250  142.4830  150.1890 C   0  0  0  0  0  2  0  0  0  0  0  0
  145.3620  141.8410  151.0680 C   0  0  0  0  0  2  0  0  0  0  0  0
  144.5580  140.8050  150.2910 C   0  0  0  0  0  2  0  0  0  0  0  0
  145.2900  139.5010  150.2010 C   0  0  0  0  0  3  0  0  0  0  0  0
  145.7910  138.9720  148.8790 C   0  0  0  0  0  2  0  0  0  0  0  0
  144.6260  138.3120  149.5580 C   0  0  0  0  0  2  0  0  0  0  0  0
  1  5  1  0  0  0  0
  1  2  1  0  0  0  0
  2  3  2  0  0  0  0
  4  1  1  0  0  0  0
  6  7  1  0  0  0  0
  6 13  1  0  0  0  0
  8  5  1  0  0  0  0
  8  7  2  0  0  0  0
  9  8  1  0  0  0  0
 10  9  2  0  0  0  0
 10 11  1  0  0  0  0
 11  6  2  0  0  0  0
 13 12  1  0  0  0  0
 14 11  1  0  0  0  0
 14 15  1  0  0  0  0
 16 17  1  0  0  0  0
 16  2  1  0  0  0  0
 18 17  1  0  0  0  0
 19 18  1  0  0  0  0
 20 19  1  0  0  0  0
 21 20  1  0  0  0  0
 21 22  1  0  0  0  0
 23 22  1  0  0  0  0
 24 23  1  0  0  0  0
 25 26  1  0  0  0  0
 25 24  1  0  0  0  0
 26 24  1  0  0  0  0
M  END
>  <MODEL>
2

>  <REMARK>
 VINA RESULT:    -5.570      1.937      3.086
 INTER + INTRA:         -12.231
 INTER:                 -10.514
 INTRA:                  -1.717
 UNBOUND:                -2.591
  Name = CHEMBL126095
  14 active torsions:
  status: ('A' for Active; 'I' for Inactive)
    1  A    between atoms: C_1  and  O_2
    2  A    between atoms: O_2  and  C_3
    3  A    between atoms: C_5  and  C_6
    4  A    between atoms: C_6  and  N_7
    5  A    between atoms: C_8  and  C_10
    6  A    between atoms: C_10  and  C_11
    7  A    between atoms: C_11  and  C_12
    8  A    between atoms: C_12  and  C_13
    9  A    between atoms: C_13  and  C_14
   10  A    between atoms: C_14  and  C_15
   11  A    between atoms: C_15  and  C_16
   12  A    between atoms: C_16  and  C_17
   13  A    between atoms: C_17  and  C_18
   14  A    between atoms: C_23  and  O_24
                            x       y       z     vdW  Elec       q    Type
                         _______ _______ _______ _____ _____    ______ ____

>  <TORSDO>
F 13

>  <SCORE>
-5.570

>  <RMSD_LB>
1.937

>  <RMSD_UB>
3.086

$$$$
CHEMBL126095
 OpenBabel10172500363D

 26 27  0  0  0  0  0  0  0  0999 V2000
  142.5980  138.2400  150.5630 N   0  0  0  0  0  0  0  0  0  0  0  0
  143.7200  137.8010  149.9020 C   0  0  0  0  0  0  0  0  0  0  0  0
  143.7930  136.7030  149.3610 O   0  0  0  0  0  0  0  0  0  0  0  0
  142.5890  139.1420  150.9570 H   0  0  0  0  0  0  0  0  0  0  0  0
  141.4280  137.3980  150.6900 C   0  0  0  0  0  2  0  0  0  0  0  0
  140.3130  138.7340  154.1060 C   0  0  0  0  0  0  0  0  0  0  0  0
  141.1140  138.3540  153.0150 C   0  0  0  0  0  3  0  0  0  0  0  0
  140.5530  137.7630  151.8670 C   0  0  0  0  0  0  0  0  0  0  0  0
  139.1720  137.5450  151.8290 C   0  0  0  0  0  3  0  0  0  0  0  0
  138.3660  137.9120  152.9100 C   0  0  0  0  0  3  0  0  0  0  0  0
  138.9340  138.5010  154.0380 C   0  0  0  0  0  0  0  0  0  0  0  0
  142.1990  139.4640  155.3520 C   0  0  0  0  0  1  0  0  0  0  0  0
  140.7880  139.3270  155.2460 O   0  0  0  0  0  0  0  0  0  0  0  0
  138.1390  138.8590  155.0980 O   0  0  0  0  0  0  0  0  0  0  0  0
  137.3100  139.2680  154.9450 H   0  0  0  0  0  0  0  0  0  0  0  0
  144.8630  138.7990  149.9200 C   0  0  0  0  0  2  0  0  0  0  0  0
  145.0410  139.4240  148.5410 C   0  0  0  0  0  2  0  0  0  0  0  0
  146.3760  140.1410  148.4000 C   0  0  0  0  0  2  0  0  0  0  0  0
  146.8470  140.6310  149.7660 C   0  0  0  0  0  2  0  0  0  0  0  0
  146.6940  142.1400  149.8800 C   0  0  0  0  0  2  0  0  0  0  0  0
  145.5760  142.4950  150.8530 C   0  0  0  0  0  2  0  0  0  0  0  0
  145.7130  141.6820  152.1320 C   0  0  0  0  0  2  0  0  0  0  0  0
  146.5930  142.4000  153.1490 C   0  0  0  0  0  2  0  0  0  0  0  0
  147.3210  141.4260  154.0240 C   0  0  0  0  0  3  0  0  0  0  0  0
  148.8270  141.4380  154.1260 C   0  0  0  0  0  2  0  0  0  0  0  0
  148.1330  140.3220  153.4010 C   0  0  0  0  0  2  0  0  0  0  0  0
  1  5  1  0  0  0  0
  1  4  1  0  0  0  0
  2 16  1  0  0  0  0
  2  1  1  0  0  0  0
  3  2  2  0  0  0  0
  5  8  1  0  0  0  0
  6 13  1  0  0  0  0
  7  6  2  0  0  0  0
  8  7  1  0  0  0  0
  9  8  2  0  0  0  0
  9 10  1  0  0  0  0
 10 11  2  0  0  0  0
 11  6  1  0  0  0  0
 11 14  1  0  0  0  0
 13 12  1  0  0  0  0
 15 14  1  0  0  0  0
 17 16  1  0  0  0  0
 18 17  1  0  0  0  0
 18 19  1  0  0  0  0
 19 20  1  0  0  0  0
 20 21  1  0  0  0  0
 21 22  1  0  0  0  0
 22 23  1  0  0  0  0
 23 24  1  0  0  0  0
 24 25  1  0  0  0  0
 26 24  1  0  0  0  0
 26 25  1  0  0  0  0
M  END
>  <MODEL>
3

>  <REMARK>
 VINA RESULT:    -5.394      2.251      4.196
 INTER + INTRA:         -11.927
 INTER:                 -10.444
 INTRA:                  -1.483
 UNBOUND:                -2.591
  Name = CHEMBL126095
  14 active torsions:
  status: ('A' for Active; 'I' for Inactive)
    1  A    between atoms: C_1  and  O_2
    2  A    between atoms: O_2  and  C_3
    3  A    between atoms: C_5  and  C_6
    4  A    between atoms: C_6  and  N_7
    5  A    between atoms: C_8  and  C_10
    6  A    between atoms: C_10  and  C_11
    7  A    between atoms: C_11  and  C_12
    8  A    between atoms: C_12  and  C_13
    9  A    between atoms: C_13  and  C_14
   10  A    between atoms: C_14  and  C_15
   11  A    between atoms: C_15  and  C_16
   12  A    between atoms: C_16  and  C_17
   13  A    between atoms: C_17  and  C_18
   14  A    between atoms: C_23  and  O_24
                            x       y       z     vdW  Elec       q    Type
                         _______ _______ _______ _____ _____    ______ ____

>  <TORSDO>
F 13

>  <SCORE>
-5.394

>  <RMSD_LB>
2.251

>  <RMSD_UB>
4.196

$$$$
CHEMBL126095
 OpenBabel10172500363D

 26 27  0  0  0  0  0  0  0  0999 V2000
  138.3640  137.2510  151.0180 N   0  0  0  0  0  0  0  0  0  0  0  0
  137.1210  136.8160  151.4120 C   0  0  0  0  0  0  0  0  0  0  0  0
  136.6810  136.9800  152.5450 O   0  0  0  0  0  0  0  0  0  0  0  0
  138.6540  137.1120  150.0880 H   0  0  0  0  0  0  0  0  0  0  0  0
  139.2540  137.9130  151.9490 C   0  0  0  0  0  2  0  0  0  0  0  0
  143.0060  137.4180  152.5590 C   0  0  0  0  0  0  0  0  0  0  0  0
  141.6520  137.7440  152.7490 C   0  0  0  0  0  3  0  0  0  0  0  0
  140.7120  137.5930  151.7120 C   0  0  0  0  0  0  0  0  0  0  0  0
  141.1500  137.1190  150.4710 C   0  0  0  0  0  3  0  0  0  0  0  0
  142.4940  136.7990  150.2680 C   0  0  0  0  0  3  0  0  0  0  0  0
  143.4130  136.9480  151.3050 C   0  0  0  0  0  0  0  0  0  0  0  0
  144.3340  138.8410  153.9220 C   0  0  0  0  0  1  0  0  0  0  0  0
  143.9710  137.5240  153.5260 O   0  0  0  0  0  0  0  0  0  0  0  0
  144.7330  136.6320  151.1020 O   0  0  0  0  0  0  0  0  0  0  0  0
  145.4020  137.0850  151.5770 H   0  0  0  0  0  0  0  0  0  0  0  0
  136.3550  136.0980  150.3160 C   0  0  0  0  0  2  0  0  0  0  0  0
  135.8710  134.7400  150.8120 C   0  0  0  0  0  2  0  0  0  0  0  0
  134.4020  134.7610  151.2090 C   0  0  0  0  0  2  0  0  0  0  0  0
  133.8310  133.3470  151.1510 C   0  0  0  0  0  2  0  0  0  0  0  0
  133.8740  132.8070  149.7300 C   0  0  0  0  0  2  0  0  0  0  0  0
  132.7060  133.3480  148.9130 C   0  0  0  0  0  2  0  0  0  0  0  0
  133.1320  133.5670  147.4680 C   0  0  0  0  0  2  0  0  0  0  0  0
  133.8430  134.9050  147.3010 C   0  0  0  0  0  2  0  0  0  0  0  0
  132.8710  136.0460  147.3260 C   0  0  0  0  0  3  0  0  0  0  0  0
  133.3410  137.4780  147.2440 C   0  0  0  0  0  2  0  0  0  0  0  0
  132.7990  136.9400  148.5360 C   0  0  0  0  0  2  0  0  0  0  0  0
  1  2  1  0  0  0  0
  1  5  1  0  0  0  0
  2  3  2  0  0  0  0
  4  1  1  0  0  0  0
  6  7  1  0  0  0  0
  6 13  1  0  0  0  0
  8  5  1  0  0  0  0
  8  7  2  0  0  0  0
  9  8  1  0  0  0  0
 10  9  2  0  0  0  0
 10 11  1  0  0  0  0
 11  6  2  0  0  0  0
 13 12  1  0  0  0  0
 14 11  1  0  0  0  0
 14 15  1  0  0  0  0
 16 17  1  0  0  0  0
 16  2  1  0  0  0  0
 17 18  1  0  0  0  0
 19 18  1  0  0  0  0
 20 19  1  0  0  0  0
 21 20  1  0  0  0  0
 22 21  1  0  0  0  0
 23 24  1  0  0  0  0
 23 22  1  0  0  0  0
 24 26  1  0  0  0  0
 25 24  1  0  0  0  0
 25 26  1  0  0  0  0
M  END
>  <MODEL>
4

>  <REMARK>
 VINA RESULT:    -5.365      3.975     10.972
 INTER + INTRA:         -11.877
 INTER:                 -10.330
 INTRA:                  -1.547
 UNBOUND:                -2.591
  Name = CHEMBL126095
  14 active torsions:
  status: ('A' for Active; 'I' for Inactive)
    1  A    between atoms: C_1  and  O_2
    2  A    between atoms: O_2  and  C_3
    3  A    between atoms: C_5  and  C_6
    4  A    between atoms: C_6  and  N_7
    5  A    between atoms: C_8  and  C_10
    6  A    between atoms: C_10  and  C_11
    7  A    between atoms: C_11  and  C_12
    8  A    between atoms: C_12  and  C_13
    9  A    between atoms: C_13  and  C_14
   10  A    between atoms: C_14  and  C_15
   11  A    between atoms: C_15  and  C_16
   12  A    between atoms: C_16  and  C_17
   13  A    between atoms: C_17  and  C_18
   14  A    between atoms: C_23  and  O_24
                            x       y       z     vdW  Elec       q    Type
                         _______ _______ _______ _____ _____    ______ ____

>  <TORSDO>
F 13

>  <SCORE>
-5.365

>  <RMSD_LB>
3.975

>  <RMSD_UB>
10.972

$$$$
CHEMBL126095
 OpenBabel10172500363D

 26 27  0  0  0  0  0  0  0  0999 V2000
  139.5110  136.8330  150.2470 N   0  0  0  0  0  0  0  0  0  0  0  0
  138.7240  137.6060  149.4270 C   0  0  0  0  0  0  0  0  0  0  0  0
  139.1350  138.6070  148.8510 O   0  0  0  0  0  0  0  0  0  0  0  0
  139.1320  136.0260  150.6630 H   0  0  0  0  0  0  0  0  0  0  0  0
  140.8900  137.1870  150.5080 C   0  0  0  0  0  2  0  0  0  0  0  0
  140.2710  138.6640  153.9910 C   0  0  0  0  0  0  0  0  0  0  0  0
  140.0810  138.2480  152.6620 C   0  0  0  0  0  3  0  0  0  0  0  0
  141.1270  137.6630  151.9240 C   0  0  0  0  0  0  0  0  0  0  0  0
  142.3770  137.5080  152.5320 C   0  0  0  0  0  3  0  0  0  0  0  0
  142.5800  137.9240  153.8500 C   0  0  0  0  0  3  0  0  0  0  0  0
  141.5350  138.4970  154.5720 C   0  0  0  0  0  0  0  0  0  0  0  0
  138.2770  138.3520  155.2450 C   0  0  0  0  0  1  0  0  0  0  0  0
  139.2970  139.2250  154.7740 O   0  0  0  0  0  0  0  0  0  0  0  0
  141.7380  138.9050  155.8660 O   0  0  0  0  0  0  0  0  0  0  0  0
  142.0460  138.2950  156.5070 H   0  0  0  0  0  0  0  0  0  0  0  0
  137.2940  137.1100  149.3160 C   0  0  0  0  0  2  0  0  0  0  0  0
  137.2740  135.6440  148.8990 C   0  0  0  0  0  2  0  0  0  0  0  0
  136.4950  134.7760  149.8780 C   0  0  0  0  0  2  0  0  0  0  0  0
  136.1140  135.5960  151.1070 C   0  0  0  0  0  2  0  0  0  0  0  0
  135.0930  134.8530  151.9550 C   0  0  0  0  0  2  0  0  0  0  0  0
  133.8240  135.6820  152.1160 C   0  0  0  0  0  2  0  0  0  0  0  0
  132.8660  135.4060  150.9650 C   0  0  0  0  0  2  0  0  0  0  0  0
  132.7980  136.5920  150.0100 C   0  0  0  0  0  2  0  0  0  0  0  0
  133.1150  136.1800  148.6050 C   0  0  0  0  0  3  0  0  0  0  0  0
  133.9510  137.0530  147.7010 C   0  0  0  0  0  2  0  0  0  0  0  0
  132.4780  136.9070  147.4500 C   0  0  0  0  0  2  0  0  0  0  0  0
  1  5  1  0  0  0  0
  1  4  1  0  0  0  0
  2  1  1  0  0  0  0
  3  2  2  0  0  0  0
  5  8  1  0  0  0  0
  6 11  1  0  0  0  0
  6 13  1  0  0  0  0
  7  6  2  0  0  0  0
  8  9  2  0  0  0  0
  8  7  1  0  0  0  0
  9 10  1  0  0  0  0
 10 11  2  0  0  0  0
 11 14  1  0  0  0  0
 13 12  1  0  0  0  0
 14 15  1  0  0  0  0
 16  2  1  0  0  0  0
 17 16  1  0  0  0  0
 17 18  1  0  0  0  0
 18 19  1  0  0  0  0
 19 20  1  0  0  0  0
 20 21  1  0  0  0  0
 22 21  1  0  0  0  0
 23 22  1  0  0  0  0
 24 23  1  0  0  0  0
 25 24  1  0  0  0  0
 26 25  1  0  0  0  0
 26 24  1  0  0  0  0
M  END
>  <MODEL>
5

>  <REMARK>
 VINA RESULT:    -5.360      4.403     10.069
 INTER + INTRA:         -11.867
 INTER:                 -10.110
 INTRA:                  -1.757
 UNBOUND:                -2.591
  Name = CHEMBL126095
  14 active torsions:
  status: ('A' for Active; 'I' for Inactive)
    1  A    between atoms: C_1  and  O_2
    2  A    between atoms: O_2  and  C_3
    3  A    between atoms: C_5  and  C_6
    4  A    between atoms: C_6  and  N_7
    5  A    between atoms: C_8  and  C_10
    6  A    between atoms: C_10  and  C_11
    7  A    between atoms: C_11  and  C_12
    8  A    between atoms: C_12  and  C_13
    9  A    between atoms: C_13  and  C_14
   10  A    between atoms: C_14  and  C_15
   11  A    between atoms: C_15  and  C_16
   12  A    between atoms: C_16  and  C_17
   13  A    between atoms: C_17  and  C_18
   14  A    between atoms: C_23  and  O_24
                            x       y       z     vdW  Elec       q    Type
                         _______ _______ _______ _____ _____    ______ ____

>  <TORSDO>
F 13

>  <SCORE>
-5.360

>  <RMSD_LB>
4.403

>  <RMSD_UB>
10.069

$$$$
CHEMBL126095
 OpenBabel10172500363D

 26 27  0  0  0  0  0  0  0  0999 V2000
  143.8060  137.2270  152.3940 N   0  0  0  0  0  0  0  0  0  0  0  0
  144.6990  138.2570  152.5770 C   0  0  0  0  0  0  0  0  0  0  0  0
  145.0570  139.0030  151.6720 O   0  0  0  0  0  0  0  0  0  0  0  0
  143.5370  136.6770  153.1640 H   0  0  0  0  0  0  0  0  0  0  0  0
  143.2550  136.9400  151.0870 C   0  0  0  0  0  2  0  0  0  0  0  0
  140.0460  138.2630  149.4580 C   0  0  0  0  0  0  0  0  0  0  0  0
  141.3710  137.8320  149.6460 C   0  0  0  0  0  3  0  0  0  0  0  0
  141.8370  137.4370  150.9140 C   0  0  0  0  0  0  0  0  0  0  0  0
  140.9590  137.4900  152.0010 C   0  0  0  0  0  3  0  0  0  0  0  0
  139.6420  137.9230  151.8280 C   0  0  0  0  0  3  0  0  0  0  0  0
  139.1920  138.3070  150.5660 C   0  0  0  0  0  0  0  0  0  0  0  0
  139.1950  137.6040  147.3400 C   0  0  0  0  0  1  0  0  0  0  0  0
  139.5200  138.6460  148.2520 O   0  0  0  0  0  0  0  0  0  0  0  0
  137.8980  138.7320  150.4000 O   0  0  0  0  0  0  0  0  0  0  0  0
  137.6990  139.3910  149.7640 H   0  0  0  0  0  0  0  0  0  0  0  0
  145.2100  138.3700  154.0010 C   0  0  0  0  0  2  0  0  0  0  0  0
  146.3560  137.3920  154.2310 C   0  0  0  0  0  2  0  0  0  0  0  0
  147.5880  138.0730  154.8100 C   0  0  0  0  0  2  0  0  0  0  0  0
  147.4090  139.5880  154.7720 C   0  0  0  0  0  2  0  0  0  0  0  0
  148.4460  140.2310  153.8650 C   0  0  0  0  0  2  0  0  0  0  0  0
  148.1440  141.7120  153.6700 C   0  0  0  0  0  2  0  0  0  0  0  0
  146.6500  141.9670  153.8070 C   0  0  0  0  0  2  0  0  0  0  0  0
  146.0150  142.2580  152.4510 C   0  0  0  0  0  2  0  0  0  0  0  0
  147.0480  142.3140  151.3670 C   0  0  0  0  0  3  0  0  0  0  0  0
  146.7090  142.8250  149.9880 C   0  0  0  0  0  2  0  0  0  0  0  0
  146.9640  141.3610  150.2040 C   0  0  0  0  0  2  0  0  0  0  0  0
  1  2  1  0  0  0  0
  1  4  1  0  0  0  0
  2 16  1  0  0  0  0
  3  2  2  0  0  0  0
  5  1  1  0  0  0  0
  6  7  2  0  0  0  0
  6 11  1  0  0  0  0
  7  8  1  0  0  0  0
  8  5  1  0  0  0  0
  8  9  2  0  0  0  0
 10  9  1  0  0  0  0
 11 10  2  0  0  0  0
 12 13  1  0  0  0  0
 13  6  1  0  0  0  0
 14 11  1  0  0  0  0
 15 14  1  0  0  0  0
 16 17  1  0  0  0  0
 17 18  1  0  0  0  0
 19 18  1  0  0  0  0
 20 19  1  0  0  0  0
 21 22  1  0  0  0  0
 21 20  1  0  0  0  0
 23 22  1  0  0  0  0
 24 23  1  0  0  0  0
 25 26  1  0  0  0  0
 25 24  1  0  0  0  0
 26 24  1  0  0  0  0
M  END
>  <MODEL>
6

>  <REMARK>
 VINA RESULT:    -5.346      1.371      2.116
 INTER + INTRA:         -11.844
 INTER:                 -10.354
 INTRA:                  -1.490
 UNBOUND:                -2.591
  Name = CHEMBL126095
  14 active torsions:
  status: ('A' for Active; 'I' for Inactive)
    1  A    between atoms: C_1  and  O_2
    2  A    between atoms: O_2  and  C_3
    3  A    between atoms: C_5  and  C_6
    4  A    between atoms: C_6  and  N_7
    5  A    between atoms: C_8  and  C_10
    6  A    between atoms: C_10  and  C_11
    7  A    between atoms: C_11  and  C_12
    8  A    between atoms: C_12  and  C_13
    9  A    between atoms: C_13  and  C_14
   10  A    between atoms: C_14  and  C_15
   11  A    between atoms: C_15  and  C_16
   12  A    between atoms: C_16  and  C_17
   13  A    between atoms: C_17  and  C_18
   14  A    between atoms: C_23  and  O_24
                            x       y       z     vdW  Elec       q    Type
                         _______ _______ _______ _____ _____    ______ ____

>  <TORSDO>
F 13

>  <SCORE>
-5.346

>  <RMSD_LB>
1.371

>  <RMSD_UB>
2.116

$$$$
CHEMBL126095
 OpenBabel10172500363D

 26 27  0  0  0  0  0  0  0  0999 V2000
  146.8070  138.0770  153.5320 N   0  0  0  0  0  0  0  0  0  0  0  0
  147.5560  138.7340  154.4790 C   0  0  0  0  0  0  0  0  0  0  0  0
  147.3990  138.5790  155.6850 O   0  0  0  0  0  0  0  0  0  0  0  0
  146.9960  138.2240  152.5770 H   0  0  0  0  0  0  0  0  0  0  0  0
  145.7450  137.1720  153.9160 C   0  0  0  0  0  2  0  0  0  0  0  0
  142.2360  137.7200  152.4720 C   0  0  0  0  0  0  0  0  0  0  0  0
  143.5370  137.2270  152.6740 C   0  0  0  0  0  3  0  0  0  0  0  0
  144.3630  137.7430  153.6910 C   0  0  0  0  0  0  0  0  0  0  0  0
  143.8720  138.7730  154.4990 C   0  0  0  0  0  3  0  0  0  0  0  0
  142.5840  139.2760  154.3030 C   0  0  0  0  0  3  0  0  0  0  0  0
  141.7740  138.7520  153.2970 C   0  0  0  0  0  0  0  0  0  0  0  0
  141.9400  136.9130  150.2570 C   0  0  0  0  0  1  0  0  0  0  0  0
  141.3720  137.2550  151.5150 O   0  0  0  0  0  0  0  0  0  0  0  0
  140.5090  139.2490  153.1060 O   0  0  0  0  0  0  0  0  0  0  0  0
  139.7860  138.6630  152.9970 H   0  0  0  0  0  0  0  0  0  0  0  0
  148.5850  139.6810  153.8880 C   0  0  0  0  0  2  0  0  0  0  0  0
  148.4090  141.0800  154.4660 C   0  0  0  0  0  2  0  0  0  0  0  0
  147.0710  141.6970  154.0870 C   0  0  0  0  0  2  0  0  0  0  0  0
  147.1440  142.2610  152.6710 C   0  0  0  0  0  2  0  0  0  0  0  0
  145.7930  142.1610  151.9800 C   0  0  0  0  0  2  0  0  0  0  0  0
  145.9250  142.4750  150.4940 C   0  0  0  0  0  2  0  0  0  0  0  0
  145.8370  141.1940  149.6760 C   0  0  0  0  0  2  0  0  0  0  0  0
  145.4950  140.0000  150.5600 C   0  0  0  0  0  2  0  0  0  0  0  0
  145.4140  138.7350  149.7600 C   0  0  0  0  0  3  0  0  0  0  0  0
  146.2230  137.5170  150.1340 C   0  0  0  0  0  2  0  0  0  0  0  0
  146.5820  138.3100  148.9110 C   0  0  0  0  0  2  0  0  0  0  0  0
  1  5  1  0  0  0  0
  1  2  1  0  0  0  0
  2  3  2  0  0  0  0
  4  1  1  0  0  0  0
  6  7  2  0  0  0  0
  6 11  1  0  0  0  0
  7  8  1  0  0  0  0
  8  5  1  0  0  0  0
  8  9  2  0  0  0  0
 10  9  1  0  0  0  0
 11 10  2  0  0  0  0
 12 13  1  0  0  0  0
 13  6  1  0  0  0  0
 14 11  1  0  0  0  0
 15 14  1  0  0  0  0
 16 17  1  0  0  0  0
 16  2  1  0  0  0  0
 18 17  1  0  0  0  0
 19 18  1  0  0  0  0
 20 19  1  0  0  0  0
 21 20  1  0  0  0  0
 22 21  1  0  0  0  0
 22 23  1  0  0  0  0
 24 25  1  0  0  0  0
 24 23  1  0  0  0  0
 26 24  1  0  0  0  0
 26 25  1  0  0  0  0
M  END
>  <MODEL>
7

>  <REMARK>
 VINA RESULT:    -5.333      2.105      3.878
 INTER + INTRA:         -11.822
 INTER:                  -9.787
 INTRA:                  -2.034
 UNBOUND:                -2.591
  Name = CHEMBL126095
  14 active torsions:
  status: ('A' for Active; 'I' for Inactive)
    1  A    between atoms: C_1  and  O_2
    2  A    between atoms: O_2  and  C_3
    3  A    between atoms: C_5  and  C_6
    4  A    between atoms: C_6  and  N_7
    5  A    between atoms: C_8  and  C_10
    6  A    between atoms: C_10  and  C_11
    7  A    between atoms: C_11  and  C_12
    8  A    between atoms: C_12  and  C_13
    9  A    between atoms: C_13  and  C_14
   10  A    between atoms: C_14  and  C_15
   11  A    between atoms: C_15  and  C_16
   12  A    between atoms: C_16  and  C_17
   13  A    between atoms: C_17  and  C_18
   14  A    between atoms: C_23  and  O_24
                            x       y       z     vdW  Elec       q    Type
                         _______ _______ _______ _____ _____    ______ ____

>  <TORSDO>
F 13

>  <SCORE>
-5.333

>  <RMSD_LB>
2.105

>  <RMSD_UB>
3.878

$$$$
CHEMBL126095
 OpenBabel10172500363D

 26 27  0  0  0  0  0  0  0  0999 V2000
  146.7070  142.3300  152.4730 N   0  0  0  0  0  0  0  0  0  0  0  0
  146.6200  141.4880  153.5560 C   0  0  0  0  0  0  0  0  0  0  0  0
  145.5990  140.8740  153.8480 O   0  0  0  0  0  0  0  0  0  0  0  0
  147.5610  142.7770  152.2740 H   0  0  0  0  0  0  0  0  0  0  0  0
  145.5630  142.5700  151.6190 C   0  0  0  0  0  2  0  0  0  0  0  0
  144.0430  140.0340  149.1780 C   0  0  0  0  0  0  0  0  0  0  0  0
  144.1940  140.9450  150.2380 C   0  0  0  0  0  3  0  0  0  0  0  0
  145.4320  141.5640  150.4990 C   0  0  0  0  0  0  0  0  0  0  0  0
  146.5260  141.2470  149.6880 C   0  0  0  0  0  3  0  0  0  0  0  0
  146.3900  140.3380  148.6360 C   0  0  0  0  0  3  0  0  0  0  0  0
  145.1580  139.7370  148.3860 C   0  0  0  0  0  0  0  0  0  0  0  0
  142.0390  139.0130  149.9430 C   0  0  0  0  0  1  0  0  0  0  0  0
  142.8680  139.4090  148.8560 O   0  0  0  0  0  0  0  0  0  0  0  0
  145.0290  138.8430  147.3520 O   0  0  0  0  0  0  0  0  0  0  0  0
  144.3220  138.2290  147.3490 H   0  0  0  0  0  0  0  0  0  0  0  0
  147.9020  141.4040  154.3630 C   0  0  0  0  0  2  0  0  0  0  0  0
  148.6730  140.1400  154.0020 C   0  0  0  0  0  2  0  0  0  0  0  0
  148.2330  138.9400  154.8280 C   0  0  0  0  0  2  0  0  0  0  0  0
  148.3440  137.6680  153.9920 C   0  0  0  0  0  2  0  0  0  0  0  0
  148.2630  137.9900  152.5070 C   0  0  0  0  0  2  0  0  0  0  0  0
  147.6250  136.8360  151.7420 C   0  0  0  0  0  2  0  0  0  0  0  0
  146.4630  137.3420  150.9000 C   0  0  0  0  0  2  0  0  0  0  0  0
  145.4230  138.0470  151.7640 C   0  0  0  0  0  2  0  0  0  0  0  0
  144.5290  137.0620  152.4530 C   0  0  0  0  0  3  0  0  0  0  0  0
  143.4660  137.5140  153.4240 C   0  0  0  0  0  2  0  0  0  0  0  0
  144.6910  136.8090  153.9290 C   0  0  0  0  0  2  0  0  0  0  0  0
  1  2  1  0  0  0  0
  2  3  2  0  0  0  0
  2 16  1  0  0  0  0
  4  1  1  0  0  0  0
  5  1  1  0  0  0  0
  6  7  1  0  0  0  0
  7  8  2  0  0  0  0
  8  5  1  0  0  0  0
  9  8  1  0  0  0  0
 10  9  2  0  0  0  0
 11 10  1  0  0  0  0
 11  6  2  0  0  0  0
 13  6  1  0  0  0  0
 13 12  1  0  0  0  0
 14 11  1  0  0  0  0
 15 14  1  0  0  0  0
 17 16  1  0  0  0  0
 17 18  1  0  0  0  0
 19 18  1  0  0  0  0
 20 19  1  0  0  0  0
 21 20  1  0  0  0  0
 22 21  1  0  0  0  0
 22 23  1  0  0  0  0
 23 24  1  0  0  0  0
 24 25  1  0  0  0  0
 24 26  1  0  0  0  0
 25 26  1  0  0  0  0
M  END
>  <MODEL>
8

>  <REMARK>
 VINA RESULT:    -5.089      2.829      5.227
 INTER + INTRA:         -11.399
 INTER:                  -8.901
 INTRA:                  -2.498
 UNBOUND:                -2.591
  Name = CHEMBL126095
  14 active torsions:
  status: ('A' for Active; 'I' for Inactive)
    1  A    between atoms: C_1  and  O_2
    2  A    between atoms: O_2  and  C_3
    3  A    between atoms: C_5  and  C_6
    4  A    between atoms: C_6  and  N_7
    5  A    between atoms: C_8  and  C_10
    6  A    between atoms: C_10  and  C_11
    7  A    between atoms: C_11  and  C_12
    8  A    between atoms: C_12  and  C_13
    9  A    between atoms: C_13  and  C_14
   10  A    between atoms: C_14  and  C_15
   11  A    between atoms: C_15  and  C_16
   12  A    between atoms: C_16  and  C_17
   13  A    between atoms: C_17  and  C_18
   14  A    between atoms: C_23  and  O_24
                            x       y       z     vdW  Elec       q    Type
                         _______ _______ _______ _____ _____    ______ ____

>  <TORSDO>
F 13

>  <SCORE>
-5.089

>  <RMSD_LB>
2.829

>  <RMSD_UB>
5.227

$$$$
CHEMBL126095
 OpenBabel10172500363D

 26 27  0  0  0  0  0  0  0  0999 V2000
  146.6180  140.4100  148.4230 N   0  0  0  0  0  0  0  0  0  0  0  0
  145.4570  139.7220  148.1630 C   0  0  0  0  0  0  0  0  0  0  0  0
  144.3410  140.2160  148.2880 O   0  0  0  0  0  0  0  0  0  0  0  0
  147.4850  139.9680  148.2800 H   0  0  0  0  0  0  0  0  0  0  0  0
  146.5850  141.7750  148.9040 C   0  0  0  0  0  2  0  0  0  0  0  0
  148.0410  141.9230  152.4470 C   0  0  0  0  0  0  0  0  0  0  0  0
  147.9280  141.7910  151.0520 C   0  0  0  0  0  3  0  0  0  0  0  0
  146.6790  141.8810  150.4090 C   0  0  0  0  0  0  0  0  0  0  0  0
  145.5360  142.0950  151.1850 C   0  0  0  0  0  3  0  0  0  0  0  0
  145.6350  142.2200  152.5730 C   0  0  0  0  0  3  0  0  0  0  0  0
  146.8780  142.1340  153.1970 C   0  0  0  0  0  0  0  0  0  0  0  0
  150.2600  142.7330  152.7010 C   0  0  0  0  0  1  0  0  0  0  0  0
  149.2230  141.8620  153.1370 O   0  0  0  0  0  0  0  0  0  0  0  0
  146.9710  142.2570  154.5600 O   0  0  0  0  0  0  0  0  0  0  0  0
  146.3110  142.7230  155.0350 H   0  0  0  0  0  0  0  0  0  0  0  0
  145.6880  138.2880  147.7210 C   0  0  0  0  0  2  0  0  0  0  0  0
  145.0380  137.3210  148.7030 C   0  0  0  0  0  2  0  0  0  0  0  0
  143.5850  137.0340  148.3550 C   0  0  0  0  0  2  0  0  0  0  0  0
  142.6730  137.5790  149.4500 C   0  0  0  0  0  2  0  0  0  0  0  0
  142.7360  136.7010  150.6910 C   0  0  0  0  0  2  0  0  0  0  0  0
  142.8570  137.5550  151.9480 C   0  0  0  0  0  2  0  0  0  0  0  0
  143.9030  138.6420  151.7470 C   0  0  0  0  0  2  0  0  0  0  0  0
  145.1000  138.4300  152.6670 C   0  0  0  0  0  2  0  0  0  0  0  0
  146.3880  138.4560  151.9030 C   0  0  0  0  0  3  0  0  0  0  0  0
  147.2100  137.2060  151.7070 C   0  0  0  0  0  2  0  0  0  0  0  0
  147.6950  138.2850  152.6320 C   0  0  0  0  0  2  0  0  0  0  0  0
  1  5  1  0  0  0  0
  2  3  2  0  0  0  0
  2  1  1  0  0  0  0
  4  1  1  0  0  0  0
  5  8  1  0  0  0  0
  6 13  1  0  0  0  0
  6 11  1  0  0  0  0
  7  6  2  0  0  0  0
  8  7  1  0  0  0  0
  8  9  2  0  0  0  0
  9 10  1  0  0  0  0
 10 11  2  0  0  0  0
 11 14  1  0  0  0  0
 12 13  1  0  0  0  0
 14 15  1  0  0  0  0
 16  2  1  0  0  0  0
 16 17  1  0  0  0  0
 18 17  1  0  0  0  0
 18 19  1  0  0  0  0
 19 20  1  0  0  0  0
 20 21  1  0  0  0  0
 22 21  1  0  0  0  0
 22 23  1  0  0  0  0
 24 26  1  0  0  0  0
 24 23  1  0  0  0  0
 25 24  1  0  0  0  0
 25 26  1  0  0  0  0
M  END
>  <MODEL>
9

>  <REMARK>
 VINA RESULT:    -4.950      3.296      7.716
 INTER + INTRA:         -11.159
 INTER:                  -8.568
 INTRA:                  -2.591
 UNBOUND:                -2.591
  Name = CHEMBL126095
  14 active torsions:
  status: ('A' for Active; 'I' for Inactive)
    1  A    between atoms: C_1  and  O_2
    2  A    between atoms: O_2  and  C_3
    3  A    between atoms: C_5  and  C_6
    4  A    between atoms: C_6  and  N_7
    5  A    between atoms: C_8  and  C_10
    6  A    between atoms: C_10  and  C_11
    7  A    between atoms: C_11  and  C_12
    8  A    between atoms: C_12  and  C_13
    9  A    between atoms: C_13  and  C_14
   10  A    between atoms: C_14  and  C_15
   11  A    between atoms: C_15  and  C_16
   12  A    between atoms: C_16  and  C_17
   13  A    between atoms: C_17  and  C_18
   14  A    between atoms: C_23  and  O_24
                            x       y       z     vdW  Elec       q    Type
                         _______ _______ _______ _____ _____    ______ ____

>  <TORSDO>
F 13

>  <SCORE>
-4.950

>  <RMSD_LB>
3.296

>  <RMSD_UB>
7.716

$$$$
