CHEMBL313971
 OpenBabel10172500433D

 24 24  0  0  0  0  0  0  0  0999 V2000
  144.1930  137.6770  153.8480 N   0  0  0  0  0  0  0  0  0  0  0  0
  144.9890  138.7130  154.2790 C   0  0  0  0  0  0  0  0  0  0  0  0
  144.5390  139.7510  154.7550 O   0  0  0  0  0  0  0  0  0  0  0  0
  144.6170  136.8630  153.4930 H   0  0  0  0  0  0  0  0  0  0  0  0
  142.7490  137.7510  153.9030 C   0  0  0  0  0  2  0  0  0  0  0  0
  142.2740  136.8760  150.2060 C   0  0  0  0  0  0  0  0  0  0  0  0
  142.8720  137.1140  151.4490 C   0  0  0  0  0  3  0  0  0  0  0  0
  142.1090  137.5560  152.5490 C   0  0  0  0  0  0  0  0  0  0  0  0
  140.7300  137.7470  152.3840 C   0  0  0  0  0  3  0  0  0  0  0  0
  140.1210  137.5040  151.1520 C   0  0  0  0  0  3  0  0  0  0  0  0
  140.8920  137.0710  150.0750 C   0  0  0  0  0  0  0  0  0  0  0  0
  143.4170  135.1120  149.0740 C   0  0  0  0  0  1  0  0  0  0  0  0
  142.9280  136.4450  149.0830 O   0  0  0  0  0  0  0  0  0  0  0  0
  140.2910  136.8220  148.8690 O   0  0  0  0  0  0  0  0  0  0  0  0
  139.7460  137.4740  148.4730 H   0  0  0  0  0  0  0  0  0  0  0  0
  146.4780  138.4850  154.1030 C   0  0  0  0  0  2  0  0  0  0  0  0
  147.3240  139.4360  154.9510 C   0  0  0  0  0  2  0  0  0  0  0  0
  148.3440  140.3050  154.1950 C   0  0  0  0  0  2  0  0  0  0  0  0
  148.0330  141.8050  154.1060 C   0  0  0  0  0  2  0  0  0  0  0  0
  146.6480  142.1170  153.6220 C   0  0  0  0  0  3  0  0  0  0  0  0
  146.2470  142.2240  152.3450 C   0  0  0  0  0  3  0  0  0  0  0  0
  147.0740  141.8860  151.1290 C   0  0  0  0  0  3  0  0  0  0  0  0
  146.8950  140.4070  150.7800 C   0  0  0  0  0  1  0  0  0  0  0  0
  146.7230  142.7710  149.9360 C   0  0  0  0  0  1  0  0  0  0  0  0
  1  5  1  0  0  0  0
  1  2  1  0  0  0  0
  2  3  2  0  0  0  0
  4  1  1  0  0  0  0
  6  7  1  0  0  0  0
  7  8  2  0  0  0  0
  8  5  1  0  0  0  0
  9  8  1  0  0  0  0
 10  9  2  0  0  0  0
 11  6  2  0  0  0  0
 11 10  1  0  0  0  0
 12 13  1  0  0  0  0
 13  6  1  0  0  0  0
 14 11  1  0  0  0  0
 15 14  1  0  0  0  0
 16  2  1  0  0  0  0
 16 17  1  0  0  0  0
 18 17  1  0  0  0  0
 19 18  1  0  0  0  0
 20 19  1  0  0  0  0
 21 20  2  0  0  0  0
 22 21  1  0  0  0  0
 23 22  1  0  0  0  0
 24 22  1  0  0  0  0
M  END
>  <MODEL>
1

>  <REMARK>
 VINA RESULT:    -6.655      0.000      0.000
 INTER + INTRA:         -11.390
 INTER:                 -10.113
 INTRA:                  -1.277
 UNBOUND:                -1.040
  Name = CHEMBL313971
  13 active torsions:
  status: ('A' for Active; 'I' for Inactive)
    1  A    between atoms: C_1  and  O_2
    2  A    between atoms: O_2  and  C_3
    3  A    between atoms: C_5  and  C_6
    4  A    between atoms: C_6  and  N_7
    5  A    between atoms: C_8  and  C_10
    6  A    between atoms: C_10  and  C_11
    7  A    between atoms: C_11  and  C_12
    8  A    between atoms: C_12  and  C_13
    9  A    between atoms: C_13  and  C_14
   10  A    between atoms: C_15  and  C_16
   11  A    between atoms: C_16  and  C_17
   12  A    between atoms: C_16  and  C_18
   13  A    between atoms: C_21  and  O_22
                            x       y       z     vdW  Elec       q    Type
                         _______ _______ _______ _____ _____    ______ ____

>  <TORSDO>
F 10

>  <SCORE>
-6.655

>  <RMSD_LB>
0.000

>  <RMSD_UB>
0.000

$$$$
CHEMBL313971
 OpenBabel10172500433D

 24 24  0  0  0  0  0  0  0  0999 V2000
  144.0890  137.6900  153.9040 N   0  0  0  0  0  0  0  0  0  0  0  0
  144.9230  138.6910  154.3470 C   0  0  0  0  0  0  0  0  0  0  0  0
  144.5120  139.7500  154.8120 O   0  0  0  0  0  0  0  0  0  0  0  0
  144.4830  136.8560  153.5600 H   0  0  0  0  0  0  0  0  0  0  0  0
  142.6490  137.8290  153.9320 C   0  0  0  0  0  2  0  0  0  0  0  0
  140.3710  138.5860  150.9500 C   0  0  0  0  0  0  0  0  0  0  0  0
  140.9060  138.5710  152.2440 C   0  0  0  0  0  3  0  0  0  0  0  0
  142.0400  137.7930  152.5500 C   0  0  0  0  0  0  0  0  0  0  0  0
  142.6380  137.0350  151.5340 C   0  0  0  0  0  3  0  0  0  0  0  0
  142.1190  137.0500  150.2380 C   0  0  0  0  0  3  0  0  0  0  0  0
  140.9950  137.8220  149.9540 C   0  0  0  0  0  0  0  0  0  0  0  0
  139.4380  140.7070  150.3760 C   0  0  0  0  0  1  0  0  0  0  0  0
  139.2760  139.3080  150.5550 O   0  0  0  0  0  0  0  0  0  0  0  0
  140.4930  137.8440  148.6790 O   0  0  0  0  0  0  0  0  0  0  0  0
  140.2990  137.0410  148.2380 H   0  0  0  0  0  0  0  0  0  0  0  0
  146.4040  138.3950  154.2000 C   0  0  0  0  0  2  0  0  0  0  0  0
  147.2790  139.3440  155.0220 C   0  0  0  0  0  2  0  0  0  0  0  0
  148.3450  140.1360  154.2460 C   0  0  0  0  0  2  0  0  0  0  0  0
  148.1580  141.6580  154.1830 C   0  0  0  0  0  2  0  0  0  0  0  0
  146.8040  142.0900  153.7000 C   0  0  0  0  0  3  0  0  0  0  0  0
  146.4140  142.2310  152.4240 C   0  0  0  0  0  3  0  0  0  0  0  0
  147.2070  141.8220  151.2070 C   0  0  0  0  0  3  0  0  0  0  0  0
  146.8880  140.3690  150.8480 C   0  0  0  0  0  1  0  0  0  0  0  0
  146.9450  142.7440  150.0190 C   0  0  0  0  0  1  0  0  0  0  0  0
  1  5  1  0  0  0  0
  1  2  1  0  0  0  0
  2  3  2  0  0  0  0
  4  1  1  0  0  0  0
  6  7  1  0  0  0  0
  7  8  2  0  0  0  0
  8  5  1  0  0  0  0
  9  8  1  0  0  0  0
 10  9  2  0  0  0  0
 11 10  1  0  0  0  0
 11  6  2  0  0  0  0
 12 13  1  0  0  0  0
 13  6  1  0  0  0  0
 14 11  1  0  0  0  0
 15 14  1  0  0  0  0
 16  2  1  0  0  0  0
 16 17  1  0  0  0  0
 18 17  1  0  0  0  0
 19 18  1  0  0  0  0
 20 19  1  0  0  0  0
 21 20  2  0  0  0  0
 22 21  1  0  0  0  0
 23 22  1  0  0  0  0
 24 22  1  0  0  0  0
M  END
>  <MODEL>
2

>  <REMARK>
 VINA RESULT:    -6.491      1.078      2.113
 INTER + INTRA:         -11.136
 INTER:                  -9.841
 INTRA:                  -1.294
 UNBOUND:                -1.040
  Name = CHEMBL313971
  13 active torsions:
  status: ('A' for Active; 'I' for Inactive)
    1  A    between atoms: C_1  and  O_2
    2  A    between atoms: O_2  and  C_3
    3  A    between atoms: C_5  and  C_6
    4  A    between atoms: C_6  and  N_7
    5  A    between atoms: C_8  and  C_10
    6  A    between atoms: C_10  and  C_11
    7  A    between atoms: C_11  and  C_12
    8  A    between atoms: C_12  and  C_13
    9  A    between atoms: C_13  and  C_14
   10  A    between atoms: C_15  and  C_16
   11  A    between atoms: C_16  and  C_17
   12  A    between atoms: C_16  and  C_18
   13  A    between atoms: C_21  and  O_22
                            x       y       z     vdW  Elec       q    Type
                         _______ _______ _______ _____ _____    ______ ____

>  <TORSDO>
F 10

>  <SCORE>
-6.491

>  <RMSD_LB>
1.078

>  <RMSD_UB>
2.113

$$$$
CHEMBL313971
 OpenBabel10172500433D

 24 24  0  0  0  0  0  0  0  0999 V2000
  143.6400  138.8420  151.7760 N   0  0  0  0  0  0  0  0  0  0  0  0
  143.8480  139.9960  151.0580 C   0  0  0  0  0  0  0  0  0  0  0  0
  143.2860  140.2340  149.9930 O   0  0  0  0  0  0  0  0  0  0  0  0
  144.1080  138.7200  152.6340 H   0  0  0  0  0  0  0  0  0  0  0  0
  142.7500  137.8010  151.3070 C   0  0  0  0  0  2  0  0  0  0  0  0
  140.0660  138.2220  154.0030 C   0  0  0  0  0  0  0  0  0  0  0  0
  141.3110  138.1320  153.3700 C   0  0  0  0  0  3  0  0  0  0  0  0
  141.4070  137.8350  151.9960 C   0  0  0  0  0  0  0  0  0  0  0  0
  140.2300  137.6390  151.2610 C   0  0  0  0  0  3  0  0  0  0  0  0
  138.9820  137.7360  151.8790 C   0  0  0  0  0  3  0  0  0  0  0  0
  138.9070  138.0260  153.2390 C   0  0  0  0  0  0  0  0  0  0  0  0
  140.6850  137.8310  156.2750 C   0  0  0  0  0  1  0  0  0  0  0  0
  139.8700  138.5060  155.3290 O   0  0  0  0  0  0  0  0  0  0  0  0
  137.6810  138.1310  153.8430 O   0  0  0  0  0  0  0  0  0  0  0  0
  136.9060  138.1940  153.3200 H   0  0  0  0  0  0  0  0  0  0  0  0
  144.8490  140.9560  151.6750 C   0  0  0  0  0  2  0  0  0  0  0  0
  146.0240  141.2610  150.7430 C   0  0  0  0  0  2  0  0  0  0  0  0
  147.0300  142.3160  151.2320 C   0  0  0  0  0  2  0  0  0  0  0  0
  148.4680  141.8360  151.4660 C   0  0  0  0  0  2  0  0  0  0  0  0
  148.8680  141.7780  152.9110 C   0  0  0  0  0  3  0  0  0  0  0  0
  148.5420  140.8250  153.7980 C   0  0  0  0  0  3  0  0  0  0  0  0
  147.8420  139.5260  153.4810 C   0  0  0  0  0  3  0  0  0  0  0  0
  148.8540  138.3780  153.5010 C   0  0  0  0  0  1  0  0  0  0  0  0
  146.6890  139.2490  154.4420 C   0  0  0  0  0  1  0  0  0  0  0  0
  1  4  1  0  0  0  0
  2 16  1  0  0  0  0
  2  1  1  0  0  0  0
  3  2  2  0  0  0  0
  5  1  1  0  0  0  0
  5  8  1  0  0  0  0
  6 13  1  0  0  0  0
  7  6  1  0  0  0  0
  8  7  2  0  0  0  0
  9 10  2  0  0  0  0
  9  8  1  0  0  0  0
 10 11  1  0  0  0  0
 11 14  1  0  0  0  0
 11  6  2  0  0  0  0
 13 12  1  0  0  0  0
 15 14  1  0  0  0  0
 17 18  1  0  0  0  0
 17 16  1  0  0  0  0
 18 19  1  0  0  0  0
 19 20  1  0  0  0  0
 20 21  2  0  0  0  0
 22 23  1  0  0  0  0
 22 21  1  0  0  0  0
 22 24  1  0  0  0  0
M  END
>  <MODEL>
3

>  <REMARK>
 VINA RESULT:    -6.321      2.396      4.179
 INTER + INTRA:         -10.871
 INTER:                  -9.673
 INTRA:                  -1.198
 UNBOUND:                -1.040
  Name = CHEMBL313971
  13 active torsions:
  status: ('A' for Active; 'I' for Inactive)
    1  A    between atoms: C_1  and  O_2
    2  A    between atoms: O_2  and  C_3
    3  A    between atoms: C_5  and  C_6
    4  A    between atoms: C_6  and  N_7
    5  A    between atoms: C_8  and  C_10
    6  A    between atoms: C_10  and  C_11
    7  A    between atoms: C_11  and  C_12
    8  A    between atoms: C_12  and  C_13
    9  A    between atoms: C_13  and  C_14
   10  A    between atoms: C_15  and  C_16
   11  A    between atoms: C_16  and  C_17
   12  A    between atoms: C_16  and  C_18
   13  A    between atoms: C_21  and  O_22
                            x       y       z     vdW  Elec       q    Type
                         _______ _______ _______ _____ _____    ______ ____

>  <TORSDO>
F 10

>  <SCORE>
-6.321

>  <RMSD_LB>
2.396

>  <RMSD_UB>
4.179

$$$$
CHEMBL313971
 OpenBabel10172500433D

 24 24  0  0  0  0  0  0  0  0999 V2000
  137.5970  137.0360  154.2180 N   0  0  0  0  0  0  0  0  0  0  0  0
  136.6320  137.2280  155.1790 C   0  0  0  0  0  0  0  0  0  0  0  0
  136.4880  138.2860  155.7840 O   0  0  0  0  0  0  0  0  0  0  0  0
  137.6470  136.1680  153.7570 H   0  0  0  0  0  0  0  0  0  0  0  0
  138.5400  138.0750  153.8670 C   0  0  0  0  0  2  0  0  0  0  0  0
  141.1870  137.7850  151.1160 C   0  0  0  0  0  0  0  0  0  0  0  0
  140.5680  138.0600  152.3410 C   0  0  0  0  0  3  0  0  0  0  0  0
  139.1890  137.8350  152.5240 C   0  0  0  0  0  0  0  0  0  0  0  0
  138.4390  137.3190  151.4590 C   0  0  0  0  0  3  0  0  0  0  0  0
  139.0460  137.0320  150.2350 C   0  0  0  0  0  3  0  0  0  0  0  0
  140.4100  137.2640  150.0710 C   0  0  0  0  0  0  0  0  0  0  0  0
  143.4360  137.0320  151.3830 C   0  0  0  0  0  1  0  0  0  0  0  0
  142.5160  137.9670  150.8410 O   0  0  0  0  0  0  0  0  0  0  0  0
  141.0080  136.9710  148.8730 O   0  0  0  0  0  0  0  0  0  0  0  0
  140.8010  137.4760  148.1110 H   0  0  0  0  0  0  0  0  0  0  0  0
  135.7610  136.0160  155.4550 C   0  0  0  0  0  2  0  0  0  0  0  0
  134.5990  135.8890  154.4670 C   0  0  0  0  0  2  0  0  0  0  0  0
  134.4750  134.5460  153.7260 C   0  0  0  0  0  2  0  0  0  0  0  0
  135.6400  134.1600  152.8070 C   0  0  0  0  0  2  0  0  0  0  0  0
  135.6300  134.8550  151.4770 C   0  0  0  0  0  3  0  0  0  0  0  0
  134.9670  134.4710  150.3750 C   0  0  0  0  0  3  0  0  0  0  0  0
  133.9610  133.3500  150.2950 C   0  0  0  0  0  3  0  0  0  0  0  0
  132.5440  133.9250  150.3460 C   0  0  0  0  0  1  0  0  0  0  0  0
  134.1550  132.4970  149.0440 C   0  0  0  0  0  1  0  0  0  0  0  0
  1  2  1  0  0  0  0
  2 16  1  0  0  0  0
  2  3  2  0  0  0  0
  4  1  1  0  0  0  0
  5  1  1  0  0  0  0
  6  7  1  0  0  0  0
  7  8  2  0  0  0  0
  8  5  1  0  0  0  0
  9  8  1  0  0  0  0
 10  9  2  0  0  0  0
 11 10  1  0  0  0  0
 11  6  2  0  0  0  0
 13  6  1  0  0  0  0
 13 12  1  0  0  0  0
 14 11  1  0  0  0  0
 15 14  1  0  0  0  0
 17 16  1  0  0  0  0
 18 17  1  0  0  0  0
 19 18  1  0  0  0  0
 20 19  1  0  0  0  0
 21 20  2  0  0  0  0
 22 23  1  0  0  0  0
 22 21  1  0  0  0  0
 24 22  1  0  0  0  0
M  END
>  <MODEL>
4

>  <REMARK>
 VINA RESULT:    -6.320      5.109      9.793
 INTER + INTRA:         -10.870
 INTER:                  -9.659
 INTRA:                  -1.211
 UNBOUND:                -1.040
  Name = CHEMBL313971
  13 active torsions:
  status: ('A' for Active; 'I' for Inactive)
    1  A    between atoms: C_1  and  O_2
    2  A    between atoms: O_2  and  C_3
    3  A    between atoms: C_5  and  C_6
    4  A    between atoms: C_6  and  N_7
    5  A    between atoms: C_8  and  C_10
    6  A    between atoms: C_10  and  C_11
    7  A    between atoms: C_11  and  C_12
    8  A    between atoms: C_12  and  C_13
    9  A    between atoms: C_13  and  C_14
   10  A    between atoms: C_15  and  C_16
   11  A    between atoms: C_16  and  C_17
   12  A    between atoms: C_16  and  C_18
   13  A    between atoms: C_21  and  O_22
                            x       y       z     vdW  Elec       q    Type
                         _______ _______ _______ _____ _____    ______ ____

>  <TORSDO>
F 10

>  <SCORE>
-6.320

>  <RMSD_LB>
5.109

>  <RMSD_UB>
9.793

$$$$
CHEMBL313971
 OpenBabel10172500433D

 24 24  0  0  0  0  0  0  0  0999 V2000
  145.9330  137.1630  150.0700 N   0  0  0  0  0  0  0  0  0  0  0  0
  144.5840  137.0150  149.8450 C   0  0  0  0  0  0  0  0  0  0  0  0
  143.8880  136.2030  150.4490 O   0  0  0  0  0  0  0  0  0  0  0  0
  146.4300  137.8450  149.5650 H   0  0  0  0  0  0  0  0  0  0  0  0
  146.6410  136.3420  151.0290 C   0  0  0  0  0  2  0  0  0  0  0  0
  146.4200  138.2750  154.3260 C   0  0  0  0  0  0  0  0  0  0  0  0
  146.0590  137.6100  153.1490 C   0  0  0  0  0  3  0  0  0  0  0  0
  147.0370  137.1130  152.2660 C   0  0  0  0  0  0  0  0  0  0  0  0
  148.3910  137.2840  152.5880 C   0  0  0  0  0  3  0  0  0  0  0  0
  148.7640  137.9370  153.7640 C   0  0  0  0  0  3  0  0  0  0  0  0
  147.7820  138.4260  154.6230 C   0  0  0  0  0  0  0  0  0  0  0  0
  144.6160  139.7660  154.7960 C   0  0  0  0  0  1  0  0  0  0  0  0
  145.5460  138.7910  155.2450 O   0  0  0  0  0  0  0  0  0  0  0  0
  148.1490  139.0570  155.7830 O   0  0  0  0  0  0  0  0  0  0  0  0
  149.0020  139.4370  155.8590 H   0  0  0  0  0  0  0  0  0  0  0  0
  144.0160  137.9230  148.7710 C   0  0  0  0  0  2  0  0  0  0  0  0
  143.3840  139.1930  149.3460 C   0  0  0  0  0  2  0  0  0  0  0  0
  144.3240  140.3920  149.5530 C   0  0  0  0  0  2  0  0  0  0  0  0
  144.9370  140.5500  150.9510 C   0  0  0  0  0  2  0  0  0  0  0  0
  145.2470  141.9680  151.3290 C   0  0  0  0  0  3  0  0  0  0  0  0
  146.2320  142.3860  152.1400 C   0  0  0  0  0  3  0  0  0  0  0  0
  147.3340  141.5260  152.7080 C   0  0  0  0  0  3  0  0  0  0  0  0
  148.5330  141.5320  151.7570 C   0  0  0  0  0  1  0  0  0  0  0  0
  147.7470  141.9770  154.1060 C   0  0  0  0  0  1  0  0  0  0  0  0
  1  5  1  0  0  0  0
  2  1  1  0  0  0  0
  2  3  2  0  0  0  0
  4  1  1  0  0  0  0
  5  8  1  0  0  0  0
  6 11  1  0  0  0  0
  6 13  1  0  0  0  0
  7  6  2  0  0  0  0
  8  9  2  0  0  0  0
  8  7  1  0  0  0  0
  9 10  1  0  0  0  0
 10 11  2  0  0  0  0
 11 14  1  0  0  0  0
 12 13  1  0  0  0  0
 14 15  1  0  0  0  0
 16 17  1  0  0  0  0
 16  2  1  0  0  0  0
 17 18  1  0  0  0  0
 18 19  1  0  0  0  0
 19 20  1  0  0  0  0
 20 21  2  0  0  0  0
 21 22  1  0  0  0  0
 22 24  1  0  0  0  0
 23 22  1  0  0  0  0
M  END
>  <MODEL>
5

>  <REMARK>
 VINA RESULT:    -6.285      2.539      5.944
 INTER + INTRA:         -10.815
 INTER:                  -8.996
 INTRA:                  -1.819
 UNBOUND:                -1.040
  Name = CHEMBL313971
  13 active torsions:
  status: ('A' for Active; 'I' for Inactive)
    1  A    between atoms: C_1  and  O_2
    2  A    between atoms: O_2  and  C_3
    3  A    between atoms: C_5  and  C_6
    4  A    between atoms: C_6  and  N_7
    5  A    between atoms: C_8  and  C_10
    6  A    between atoms: C_10  and  C_11
    7  A    between atoms: C_11  and  C_12
    8  A    between atoms: C_12  and  C_13
    9  A    between atoms: C_13  and  C_14
   10  A    between atoms: C_15  and  C_16
   11  A    between atoms: C_16  and  C_17
   12  A    between atoms: C_16  and  C_18
   13  A    between atoms: C_21  and  O_22
                            x       y       z     vdW  Elec       q    Type
                         _______ _______ _______ _____ _____    ______ ____

>  <TORSDO>
F 10

>  <SCORE>
-6.285

>  <RMSD_LB>
2.539

>  <RMSD_UB>
5.944

$$$$
CHEMBL313971
 OpenBabel10172500433D

 24 24  0  0  0  0  0  0  0  0999 V2000
  133.5320  133.9200  146.7290 N   0  0  0  0  0  0  0  0  0  0  0  0
  134.6680  133.2580  146.3230 C   0  0  0  0  0  0  0  0  0  0  0  0
  135.0860  132.2440  146.8740 O   0  0  0  0  0  0  0  0  0  0  0  0
  133.2400  134.7170  146.2320 H   0  0  0  0  0  0  0  0  0  0  0  0
  132.7560  133.4750  147.8660 C   0  0  0  0  0  2  0  0  0  0  0  0
  133.7780  134.4600  151.4210 C   0  0  0  0  0  0  0  0  0  0  0  0
  133.4770  133.6930  150.2890 C   0  0  0  0  0  3  0  0  0  0  0  0
  133.0190  134.3000  149.1030 C   0  0  0  0  0  0  0  0  0  0  0  0
  132.8770  135.6950  149.0660 C   0  0  0  0  0  3  0  0  0  0  0  0
  133.1840  136.4700  150.1850 C   0  0  0  0  0  3  0  0  0  0  0  0
  133.6310  135.8520  151.3510 C   0  0  0  0  0  0  0  0  0  0  0  0
  135.6280  133.9860  152.8540 C   0  0  0  0  0  1  0  0  0  0  0  0
  134.2280  133.9640  152.6160 O   0  0  0  0  0  0  0  0  0  0  0  0
  133.9420  136.6150  152.4460 O   0  0  0  0  0  0  0  0  0  0  0  0
  134.7530  137.0840  152.4740 H   0  0  0  0  0  0  0  0  0  0  0  0
  135.3840  133.8900  145.1440 C   0  0  0  0  0  2  0  0  0  0  0  0
  135.3890  135.4190  145.2090 C   0  0  0  0  0  2  0  0  0  0  0  0
  136.5000  136.0650  146.0530 C   0  0  0  0  0  2  0  0  0  0  0  0
  136.1480  136.4040  147.5070 C   0  0  0  0  0  2  0  0  0  0  0  0
  136.5310  135.3410  148.4950 C   0  0  0  0  0  3  0  0  0  0  0  0
  137.3020  135.4970  149.5830 C   0  0  0  0  0  3  0  0  0  0  0  0
  137.8050  136.8110  150.1290 C   0  0  0  0  0  3  0  0  0  0  0  0
  137.3190  136.9890  151.5690 C   0  0  0  0  0  1  0  0  0  0  0  0
  139.3250  136.9160  150.0520 C   0  0  0  0  0  1  0  0  0  0  0  0
  1  5  1  0  0  0  0
  2  1  1  0  0  0  0
  2  3  2  0  0  0  0
  4  1  1  0  0  0  0
  5  8  1  0  0  0  0
  6 13  1  0  0  0  0
  7  6  2  0  0  0  0
  8  7  1  0  0  0  0
  9  8  2  0  0  0  0
  9 10  1  0  0  0  0
 10 11  2  0  0  0  0
 11  6  1  0  0  0  0
 11 14  1  0  0  0  0
 13 12  1  0  0  0  0
 14 15  1  0  0  0  0
 16 17  1  0  0  0  0
 16  2  1  0  0  0  0
 17 18  1  0  0  0  0
 18 19  1  0  0  0  0
 19 20  1  0  0  0  0
 20 21  2  0  0  0  0
 21 22  1  0  0  0  0
 22 23  1  0  0  0  0
 24 22  1  0  0  0  0
M  END
>  <MODEL>
6

>  <REMARK>
 VINA RESULT:    -6.044      7.989     11.604
 INTER + INTRA:         -10.440
 INTER:                  -8.523
 INTRA:                  -1.917
 UNBOUND:                -1.040
  Name = CHEMBL313971
  13 active torsions:
  status: ('A' for Active; 'I' for Inactive)
    1  A    between atoms: C_1  and  O_2
    2  A    between atoms: O_2  and  C_3
    3  A    between atoms: C_5  and  C_6
    4  A    between atoms: C_6  and  N_7
    5  A    between atoms: C_8  and  C_10
    6  A    between atoms: C_10  and  C_11
    7  A    between atoms: C_11  and  C_12
    8  A    between atoms: C_12  and  C_13
    9  A    between atoms: C_13  and  C_14
   10  A    between atoms: C_15  and  C_16
   11  A    between atoms: C_16  and  C_17
   12  A    between atoms: C_16  and  C_18
   13  A    between atoms: C_21  and  O_22
                            x       y       z     vdW  Elec       q    Type
                         _______ _______ _______ _____ _____    ______ ____

>  <TORSDO>
F 10

>  <SCORE>
-6.044

>  <RMSD_LB>
7.989

>  <RMSD_UB>
11.604

$$$$
CHEMBL313971
 OpenBabel10172500433D

 24 24  0  0  0  0  0  0  0  0999 V2000
  143.3870  138.9680  151.6580 N   0  0  0  0  0  0  0  0  0  0  0  0
  142.0190  138.9080  151.5230 C   0  0  0  0  0  0  0  0  0  0  0  0
  141.3680  139.7540  150.9160 O   0  0  0  0  0  0  0  0  0  0  0  0
  143.8520  138.2470  152.1410 H   0  0  0  0  0  0  0  0  0  0  0  0
  144.1610  140.0610  151.1100 C   0  0  0  0  0  2  0  0  0  0  0  0
  146.8780  140.1550  153.8050 C   0  0  0  0  0  0  0  0  0  0  0  0
  145.8730  139.6940  152.9460 C   0  0  0  0  0  3  0  0  0  0  0  0
  145.1990  140.5750  152.0780 C   0  0  0  0  0  0  0  0  0  0  0  0
  145.5560  141.9310  152.0780 C   0  0  0  0  0  3  0  0  0  0  0  0
  146.5630  142.4010  152.9230 C   0  0  0  0  0  3  0  0  0  0  0  0
  147.2150  141.5150  153.7770 C   0  0  0  0  0  0  0  0  0  0  0  0
  146.8590  138.6440  155.6530 C   0  0  0  0  0  1  0  0  0  0  0  0
  147.5890  139.3780  154.6810 O   0  0  0  0  0  0  0  0  0  0  0  0
  148.2110  141.9760  154.5990 O   0  0  0  0  0  0  0  0  0  0  0  0
  148.6760  142.7590  154.3780 H   0  0  0  0  0  0  0  0  0  0  0  0
  141.3650  137.7190  152.2010 C   0  0  0  0  0  2  0  0  0  0  0  0
  139.8820  137.9520  152.4970 C   0  0  0  0  0  2  0  0  0  0  0  0
  139.5540  138.7080  153.7960 C   0  0  0  0  0  2  0  0  0  0  0  0
  139.0500  137.8620  154.9730 C   0  0  0  0  0  2  0  0  0  0  0  0
  137.7290  138.3060  155.5270 C   0  0  0  0  0  3  0  0  0  0  0  0
  136.6920  137.5210  155.8590 C   0  0  0  0  0  3  0  0  0  0  0  0
  136.7030  136.0130  155.8990 C   0  0  0  0  0  3  0  0  0  0  0  0
  135.8380  135.5220  157.0610 C   0  0  0  0  0  1  0  0  0  0  0  0
  136.2370  135.4040  154.5800 C   0  0  0  0  0  1  0  0  0  0  0  0
  1  4  1  0  0  0  0
  2  1  1  0  0  0  0
  2 16  1  0  0  0  0
  3  2  2  0  0  0  0
  5  1  1  0  0  0  0
  5  8  1  0  0  0  0
  6 13  1  0  0  0  0
  7  6  2  0  0  0  0
  8  9  2  0  0  0  0
  8  7  1  0  0  0  0
  9 10  1  0  0  0  0
 10 11  2  0  0  0  0
 11  6  1  0  0  0  0
 11 14  1  0  0  0  0
 13 12  1  0  0  0  0
 15 14  1  0  0  0  0
 16 17  1  0  0  0  0
 17 18  1  0  0  0  0
 18 19  1  0  0  0  0
 19 20  1  0  0  0  0
 20 21  2  0  0  0  0
 21 22  1  0  0  0  0
 22 23  1  0  0  0  0
 24 22  1  0  0  0  0
M  END
>  <MODEL>
7

>  <REMARK>
 VINA RESULT:    -6.034      3.353      8.555
 INTER + INTRA:         -10.424
 INTER:                  -9.757
 INTRA:                  -0.668
 UNBOUND:                -1.040
  Name = CHEMBL313971
  13 active torsions:
  status: ('A' for Active; 'I' for Inactive)
    1  A    between atoms: C_1  and  O_2
    2  A    between atoms: O_2  and  C_3
    3  A    between atoms: C_5  and  C_6
    4  A    between atoms: C_6  and  N_7
    5  A    between atoms: C_8  and  C_10
    6  A    between atoms: C_10  and  C_11
    7  A    between atoms: C_11  and  C_12
    8  A    between atoms: C_12  and  C_13
    9  A    between atoms: C_13  and  C_14
   10  A    between atoms: C_15  and  C_16
   11  A    between atoms: C_16  and  C_17
   12  A    between atoms: C_16  and  C_18
   13  A    between atoms: C_21  and  O_22
                            x       y       z     vdW  Elec       q    Type
                         _______ _______ _______ _____ _____    ______ ____

>  <TORSDO>
F 10

>  <SCORE>
-6.034

>  <RMSD_LB>
3.353

>  <RMSD_UB>
8.555

$$$$
CHEMBL313971
 OpenBabel10172500433D

 24 24  0  0  0  0  0  0  0  0999 V2000
  144.8560  141.3180  150.0400 N   0  0  0  0  0  0  0  0  0  0  0  0
  144.9080  140.2180  149.2160 C   0  0  0  0  0  0  0  0  0  0  0  0
  145.9440  139.8200  148.6920 O   0  0  0  0  0  0  0  0  0  0  0  0
  143.9960  141.5740  150.4440 H   0  0  0  0  0  0  0  0  0  0  0  0
  146.0330  142.1100  150.3290 C   0  0  0  0  0  2  0  0  0  0  0  0
  146.6840  140.4050  153.6940 C   0  0  0  0  0  0  0  0  0  0  0  0
  146.0520  140.8280  152.5190 C   0  0  0  0  0  3  0  0  0  0  0  0
  146.6950  141.7060  151.6250 C   0  0  0  0  0  0  0  0  0  0  0  0
  147.9920  142.1480  151.9230 C   0  0  0  0  0  3  0  0  0  0  0  0
  148.6370  141.7250  153.0870 C   0  0  0  0  0  3  0  0  0  0  0  0
  147.9830  140.8590  153.9610 C   0  0  0  0  0  0  0  0  0  0  0  0
  144.7510  139.6570  154.8790 C   0  0  0  0  0  1  0  0  0  0  0  0
  146.1440  139.5550  154.6220 O   0  0  0  0  0  0  0  0  0  0  0  0
  148.6210  140.4360  155.0980 O   0  0  0  0  0  0  0  0  0  0  0  0
  149.3250  139.8200  155.0390 H   0  0  0  0  0  0  0  0  0  0  0  0
  143.5720  139.5360  148.9840 C   0  0  0  0  0  2  0  0  0  0  0  0
  142.5750  139.7910  150.1170 C   0  0  0  0  0  2  0  0  0  0  0  0
  141.1170  140.0490  149.7010 C   0  0  0  0  0  2  0  0  0  0  0  0
  140.0920  138.9800  150.1010 C   0  0  0  0  0  2  0  0  0  0  0  0
  140.6630  137.8540  150.9110 C   0  0  0  0  0  3  0  0  0  0  0  0
  140.5570  137.6850  152.2380 C   0  0  0  0  0  3  0  0  0  0  0  0
  139.6990  138.5070  153.1680 C   0  0  0  0  0  3  0  0  0  0  0  0
  138.3710  137.7870  153.4150 C   0  0  0  0  0  1  0  0  0  0  0  0
  140.4080  138.8040  154.4870 C   0  0  0  0  0  1  0  0  0  0  0  0
  1  5  1  0  0  0  0
  1  4  1  0  0  0  0
  2  1  1  0  0  0  0
  3  2  2  0  0  0  0
  5  8  1  0  0  0  0
  6 11  1  0  0  0  0
  6 13  1  0  0  0  0
  7  6  2  0  0  0  0
  8  9  2  0  0  0  0
  8  7  1  0  0  0  0
  9 10  1  0  0  0  0
 10 11  2  0  0  0  0
 11 14  1  0  0  0  0
 13 12  1  0  0  0  0
 15 14  1  0  0  0  0
 16  2  1  0  0  0  0
 16 17  1  0  0  0  0
 18 19  1  0  0  0  0
 18 17  1  0  0  0  0
 19 20  1  0  0  0  0
 20 21  2  0  0  0  0
 21 22  1  0  0  0  0
 22 23  1  0  0  0  0
 22 24  1  0  0  0  0
M  END
>  <MODEL>
8

>  <REMARK>
 VINA RESULT:    -6.000      2.606      7.712
 INTER + INTRA:         -10.372
 INTER:                  -9.332
 INTRA:                  -1.040
 UNBOUND:                -1.040
  Name = CHEMBL313971
  13 active torsions:
  status: ('A' for Active; 'I' for Inactive)
    1  A    between atoms: C_1  and  O_2
    2  A    between atoms: O_2  and  C_3
    3  A    between atoms: C_5  and  C_6
    4  A    between atoms: C_6  and  N_7
    5  A    between atoms: C_8  and  C_10
    6  A    between atoms: C_10  and  C_11
    7  A    between atoms: C_11  and  C_12
    8  A    between atoms: C_12  and  C_13
    9  A    between atoms: C_13  and  C_14
   10  A    between atoms: C_15  and  C_16
   11  A    between atoms: C_16  and  C_17
   12  A    between atoms: C_16  and  C_18
   13  A    between atoms: C_21  and  O_22
                            x       y       z     vdW  Elec       q    Type
                         _______ _______ _______ _____ _____    ______ ____

>  <TORSDO>
F 10

>  <SCORE>
-6.000

>  <RMSD_LB>
2.606

>  <RMSD_UB>
7.712

$$$$
CHEMBL313971
 OpenBabel10172500433D

 24 24  0  0  0  0  0  0  0  0999 V2000
  145.4910  137.8830  150.5790 N   0  0  0  0  0  0  0  0  0  0  0  0
  145.6690  138.5900  149.4120 C   0  0  0  0  0  0  0  0  0  0  0  0
  145.0840  138.3180  148.3680 O   0  0  0  0  0  0  0  0  0  0  0  0
  145.9770  138.1640  151.3870 H   0  0  0  0  0  0  0  0  0  0  0  0
  144.6090  136.7380  150.6500 C   0  0  0  0  0  2  0  0  0  0  0  0
  141.8060  138.1930  152.8130 C   0  0  0  0  0  0  0  0  0  0  0  0
  143.0740  137.8030  152.3670 C   0  0  0  0  0  3  0  0  0  0  0  0
  143.2330  137.1010  151.1560 C   0  0  0  0  0  0  0  0  0  0  0  0
  142.0970  136.8020  150.3910 C   0  0  0  0  0  3  0  0  0  0  0  0
  140.8280  137.1940  150.8210 C   0  0  0  0  0  3  0  0  0  0  0  0
  140.6900  137.8840  152.0230 C   0  0  0  0  0  0  0  0  0  0  0  0
  141.4220  138.1250  155.1680 C   0  0  0  0  0  1  0  0  0  0  0  0
  141.5490  138.8780  153.9710 O   0  0  0  0  0  0  0  0  0  0  0  0
  139.4440  138.2780  152.4380 O   0  0  0  0  0  0  0  0  0  0  0  0
  139.1420  139.1450  152.2540 H   0  0  0  0  0  0  0  0  0  0  0  0
  146.6670  139.7290  149.5050 C   0  0  0  0  0  2  0  0  0  0  0  0
  146.0090  141.1020  149.3530 C   0  0  0  0  0  2  0  0  0  0  0  0
  146.3890  142.1630  150.3990 C   0  0  0  0  0  2  0  0  0  0  0  0
  145.5060  142.2380  151.6520 C   0  0  0  0  0  2  0  0  0  0  0  0
  146.2710  142.3890  152.9340 C   0  0  0  0  0  3  0  0  0  0  0  0
  146.6500  141.4040  153.7640 C   0  0  0  0  0  3  0  0  0  0  0  0
  146.5280  139.9240  153.4940 C   0  0  0  0  0  3  0  0  0  0  0  0
  147.8420  139.3970  152.9130 C   0  0  0  0  0  1  0  0  0  0  0  0
  146.1370  139.1450  154.7460 C   0  0  0  0  0  1  0  0  0  0  0  0
  1  5  1  0  0  0  0
  1  4  1  0  0  0  0
  2 16  1  0  0  0  0
  2  1  1  0  0  0  0
  3  2  2  0  0  0  0
  5  8  1  0  0  0  0
  6 13  1  0  0  0  0
  7  6  1  0  0  0  0
  8  7  2  0  0  0  0
  9 10  2  0  0  0  0
  9  8  1  0  0  0  0
 10 11  1  0  0  0  0
 11 14  1  0  0  0  0
 11  6  2  0  0  0  0
 13 12  1  0  0  0  0
 15 14  1  0  0  0  0
 17 16  1  0  0  0  0
 17 18  1  0  0  0  0
 18 19  1  0  0  0  0
 19 20  1  0  0  0  0
 20 21  2  0  0  0  0
 22 21  1  0  0  0  0
 22 24  1  0  0  0  0
 23 22  1  0  0  0  0
M  END
>  <MODEL>
9

>  <REMARK>
 VINA RESULT:    -5.975      1.880      4.084
 INTER + INTRA:         -10.334
 INTER:                  -8.852
 INTRA:                  -1.481
 UNBOUND:                -1.040
  Name = CHEMBL313971
  13 active torsions:
  status: ('A' for Active; 'I' for Inactive)
    1  A    between atoms: C_1  and  O_2
    2  A    between atoms: O_2  and  C_3
    3  A    between atoms: C_5  and  C_6
    4  A    between atoms: C_6  and  N_7
    5  A    between atoms: C_8  and  C_10
    6  A    between atoms: C_10  and  C_11
    7  A    between atoms: C_11  and  C_12
    8  A    between atoms: C_12  and  C_13
    9  A    between atoms: C_13  and  C_14
   10  A    between atoms: C_15  and  C_16
   11  A    between atoms: C_16  and  C_17
   12  A    between atoms: C_16  and  C_18
   13  A    between atoms: C_21  and  O_22
                            x       y       z     vdW  Elec       q    Type
                         _______ _______ _______ _____ _____    ______ ____

>  <TORSDO>
F 10

>  <SCORE>
-5.975

>  <RMSD_LB>
1.880

>  <RMSD_UB>
4.084

$$$$
