CHEMBL1977302
 OpenBabel10172500553D

 28 28  0  0  0  0  0  0  0  0999 V2000
  143.7120  138.0150  150.8740 N   0  0  0  0  0  0  0  0  0  0  0  0
  144.8210  137.8210  150.0840 C   0  0  0  0  0  0  0  0  0  0  0  0
  144.9110  136.9170  149.2640 O   0  0  0  0  0  0  0  0  0  0  0  0
  143.6930  138.7710  151.5030 H   0  0  0  0  0  0  0  0  0  0  0  0
  145.9290  138.8140  150.3550 C   0  0  0  0  0  2  0  0  0  0  0  0
  146.3080  139.5830  149.0900 C   0  0  0  0  0  2  0  0  0  0  0  0
  146.2090  141.0980  149.2590 C   0  0  0  0  0  2  0  0  0  0  0  0
  145.4770  141.4730  150.5460 C   0  0  0  0  0  2  0  0  0  0  0  0
  146.3570  142.3040  151.4680 C   0  0  0  0  0  2  0  0  0  0  0  0
  147.7920  142.3340  150.9450 C   0  0  0  0  0  2  0  0  0  0  0  0
  148.7790  141.9360  152.0380 C   0  0  0  0  0  2  0  0  0  0  0  0
  148.0480  141.4380  153.2850 C   0  0  0  0  0  2  0  0  0  0  0  0
  148.4400  139.9950  153.6210 C   0  0  0  0  0  2  0  0  0  0  0  0
  147.5640  139.4180  154.7370 C   0  0  0  0  0  2  0  0  0  0  0  0
  145.8110  139.7220  154.3530 S   0  0  0  0  0  0  0  0  0  0  0  0
  145.3320  138.1410  153.9870 C   0  0  0  0  0  0  0  0  0  0  0  0
  145.0130  137.0600  153.7320 N   0  0  0  0  0  0  0  0  0  0  0  0
  142.5760  137.1270  150.7980 C   0  0  0  0  0  2  0  0  0  0  0  0
  140.6010  138.6560  153.6960 C   0  0  0  0  0  0  0  0  0  0  0  0
  141.6590  138.2000  152.8980 C   0  0  0  0  0  3  0  0  0  0  0  0
  141.4210  137.5830  151.6560 C   0  0  0  0  0  0  0  0  0  0  0  0
  140.0990  137.4100  151.2300 C   0  0  0  0  0  3  0  0  0  0  0  0
  139.0340  137.8560  152.0180 C   0  0  0  0  0  3  0  0  0  0  0  0
  139.2890  138.4740  153.2430 C   0  0  0  0  0  0  0  0  0  0  0  0
  138.2440  138.9080  154.0160 O   0  0  0  0  0  0  0  0  0  0  0  0
  137.8830  139.7620  153.8780 H   0  0  0  0  0  0  0  0  0  0  0  0
  142.0800  139.4790  155.3680 C   0  0  0  0  0  1  0  0  0  0  0  0
  140.7500  139.2840  154.9060 O   0  0  0  0  0  0  0  0  0  0  0  0
  1  4  1  0  0  0  0
  2  5  1  0  0  0  0
  2  1  1  0  0  0  0
  3  2  2  0  0  0  0
  6  7  1  0  0  0  0
  6  5  1  0  0  0  0
  7  8  1  0  0  0  0
  8  9  1  0  0  0  0
 10  9  1  0  0  0  0
 10 11  1  0  0  0  0
 11 12  1  0  0  0  0
 12 13  1  0  0  0  0
 13 14  1  0  0  0  0
 15 14  1  0  0  0  0
 16 15  1  0  0  0  0
 17 16  3  0  0  0  0
 18  1  1  0  0  0  0
 18 21  1  0  0  0  0
 19 28  1  0  0  0  0
 20 19  2  0  0  0  0
 21 20  1  0  0  0  0
 22 21  2  0  0  0  0
 22 23  1  0  0  0  0
 23 24  2  0  0  0  0
 24 19  1  0  0  0  0
 24 25  1  0  0  0  0
 26 25  1  0  0  0  0
 28 27  1  0  0  0  0
M  END
>  <MODEL>
1

>  <REMARK>
 VINA RESULT:    -6.506      0.000      0.000
 INTER + INTRA:         -13.201
 INTER:                 -11.085
 INTRA:                  -2.116
 UNBOUND:                -0.799
  Name = CHEMBL1977302
  17 active torsions:
  status: ('A' for Active; 'I' for Inactive)
    1  A    between atoms: C_1  and  O_2
    2  A    between atoms: O_2  and  C_3
    3  A    between atoms: C_5  and  C_6
    4  A    between atoms: C_6  and  N_7
    5  A    between atoms: C_8  and  C_10
    6  A    between atoms: C_10  and  C_11
    7  A    between atoms: C_11  and  C_12
    8  A    between atoms: C_12  and  C_13
    9  A    between atoms: C_13  and  C_14
   10  A    between atoms: C_14  and  C_15
   11  A    between atoms: C_15  and  C_16
   12  A    between atoms: C_16  and  C_17
   13  A    between atoms: C_17  and  C_18
   14  A    between atoms: C_18  and  C_19
   15  A    between atoms: C_19  and  S_20
   16  A    between atoms: S_20  and  C_21
   17  A    between atoms: C_25  and  O_26
                            x       y       z     vdW  Elec       q    Type
                         _______ _______ _______ _____ _____    ______ ____

>  <TORSDO>
F 16

>  <SCORE>
-6.506

>  <RMSD_LB>
0.000

>  <RMSD_UB>
0.000

$$$$
CHEMBL1977302
 OpenBabel10172500553D

 28 28  0  0  0  0  0  0  0  0999 V2000
  143.6970  137.9730  150.8850 N   0  0  0  0  0  0  0  0  0  0  0  0
  145.0230  137.6120  150.8310 C   0  0  0  0  0  0  0  0  0  0  0  0
  145.4000  136.4540  150.7070 O   0  0  0  0  0  0  0  0  0  0  0  0
  143.4580  138.9230  150.9680 H   0  0  0  0  0  0  0  0  0  0  0  0
  145.9680  138.7840  150.9740 C   0  0  0  0  0  2  0  0  0  0  0  0
  146.4050  139.3170  149.6100 C   0  0  0  0  0  2  0  0  0  0  0  0
  145.7140  140.6250  149.2310 C   0  0  0  0  0  2  0  0  0  0  0  0
  145.0860  141.3030  150.4470 C   0  0  0  0  0  2  0  0  0  0  0  0
  145.8540  142.5540  150.8490 C   0  0  0  0  0  2  0  0  0  0  0  0
  147.2520  142.5370  150.2330 C   0  0  0  0  0  2  0  0  0  0  0  0
  148.3140  142.2930  151.3010 C   0  0  0  0  0  2  0  0  0  0  0  0
  147.6750  141.9810  152.6540 C   0  0  0  0  0  2  0  0  0  0  0  0
  148.2640  140.7070  153.2670 C   0  0  0  0  0  2  0  0  0  0  0  0
  147.5160  140.2950  154.5390 C   0  0  0  0  0  2  0  0  0  0  0  0
  147.3590  138.4820  154.5920 S   0  0  0  0  0  0  0  0  0  0  0  0
  147.8330  138.2130  156.1950 C   0  0  0  0  0  0  0  0  0  0  0  0
  148.1490  138.0230  157.2900 N   0  0  0  0  0  0  0  0  0  0  0  0
  142.6500  136.9810  150.8240 C   0  0  0  0  0  2  0  0  0  0  0  0
  138.9950  137.6900  151.7010 C   0  0  0  0  0  0  0  0  0  0  0  0
  140.1520  137.3490  150.9890 C   0  0  0  0  0  3  0  0  0  0  0  0
  141.4200  137.3840  151.5990 C   0  0  0  0  0  0  0  0  0  0  0  0
  141.5150  137.7880  152.9360 C   0  0  0  0  0  3  0  0  0  0  0  0
  140.3690  138.1360  153.6560 C   0  0  0  0  0  3  0  0  0  0  0  0
  139.1190  138.0870  153.0380 C   0  0  0  0  0  0  0  0  0  0  0  0
  137.9970  138.4310  153.7450 O   0  0  0  0  0  0  0  0  0  0  0  0
  137.6610  139.3040  153.6950 H   0  0  0  0  0  0  0  0  0  0  0  0
  137.5750  138.0420  149.8240 C   0  0  0  0  0  1  0  0  0  0  0  0
  137.7240  137.6630  151.1860 O   0  0  0  0  0  0  0  0  0  0  0  0
  1  4  1  0  0  0  0
  2  1  1  0  0  0  0
  2  5  1  0  0  0  0
  3  2  2  0  0  0  0
  6  5  1  0  0  0  0
  7  6  1  0  0  0  0
  7  8  1  0  0  0  0
  8  9  1  0  0  0  0
 10  9  1  0  0  0  0
 10 11  1  0  0  0  0
 11 12  1  0  0  0  0
 12 13  1  0  0  0  0
 13 14  1  0  0  0  0
 14 15  1  0  0  0  0
 15 16  1  0  0  0  0
 16 17  3  0  0  0  0
 18  1  1  0  0  0  0
 18 21  1  0  0  0  0
 19 24  1  0  0  0  0
 20 21  1  0  0  0  0
 20 19  2  0  0  0  0
 21 22  2  0  0  0  0
 22 23  1  0  0  0  0
 24 23  2  0  0  0  0
 24 25  1  0  0  0  0
 26 25  1  0  0  0  0
 27 28  1  0  0  0  0
 28 19  1  0  0  0  0
M  END
>  <MODEL>
2

>  <REMARK>
 VINA RESULT:    -6.329      1.493      2.410
 INTER + INTRA:         -12.863
 INTER:                 -11.443
 INTRA:                  -1.421
 UNBOUND:                -0.799
  Name = CHEMBL1977302
  17 active torsions:
  status: ('A' for Active; 'I' for Inactive)
    1  A    between atoms: C_1  and  O_2
    2  A    between atoms: O_2  and  C_3
    3  A    between atoms: C_5  and  C_6
    4  A    between atoms: C_6  and  N_7
    5  A    between atoms: C_8  and  C_10
    6  A    between atoms: C_10  and  C_11
    7  A    between atoms: C_11  and  C_12
    8  A    between atoms: C_12  and  C_13
    9  A    between atoms: C_13  and  C_14
   10  A    between atoms: C_14  and  C_15
   11  A    between atoms: C_15  and  C_16
   12  A    between atoms: C_16  and  C_17
   13  A    between atoms: C_17  and  C_18
   14  A    between atoms: C_18  and  C_19
   15  A    between atoms: C_19  and  S_20
   16  A    between atoms: S_20  and  C_21
   17  A    between atoms: C_25  and  O_26
                            x       y       z     vdW  Elec       q    Type
                         _______ _______ _______ _____ _____    ______ ____

>  <TORSDO>
F 16

>  <SCORE>
-6.329

>  <RMSD_LB>
1.493

>  <RMSD_UB>
2.410

$$$$
CHEMBL1977302
 OpenBabel10172500553D

 28 28  0  0  0  0  0  0  0  0999 V2000
  138.1690  137.2500  154.7870 N   0  0  0  0  0  0  0  0  0  0  0  0
  139.0160  138.2210  154.3060 C   0  0  0  0  0  0  0  0  0  0  0  0
  139.6370  138.9890  155.0290 O   0  0  0  0  0  0  0  0  0  0  0  0
  137.7110  136.6520  154.1550 H   0  0  0  0  0  0  0  0  0  0  0  0
  139.0750  138.2680  152.7950 C   0  0  0  0  0  2  0  0  0  0  0  0
  140.4740  138.6420  152.3040 C   0  0  0  0  0  2  0  0  0  0  0  0
  141.3260  137.4260  151.9460 C   0  0  0  0  0  2  0  0  0  0  0  0
  142.6630  137.4390  152.6830 C   0  0  0  0  0  2  0  0  0  0  0  0
  142.7790  138.6390  153.6110 C   0  0  0  0  0  2  0  0  0  0  0  0
  143.9790  139.4990  153.2180 C   0  0  0  0  0  2  0  0  0  0  0  0
  145.2660  138.6810  153.2430 C   0  0  0  0  0  2  0  0  0  0  0  0
  145.7880  138.5180  154.6710 C   0  0  0  0  0  2  0  0  0  0  0  0
  147.1130  139.2620  154.8680 C   0  0  0  0  0  2  0  0  0  0  0  0
  147.5170  140.0370  153.6100 C   0  0  0  0  0  2  0  0  0  0  0  0
  147.3790  141.8240  153.9270 S   0  0  0  0  0  0  0  0  0  0  0  0
  146.3480  142.2480  152.6530 C   0  0  0  0  0  0  0  0  0  0  0  0
  145.6390  142.5300  151.7840 N   0  0  0  0  0  0  0  0  0  0  0  0
  137.9400  137.0940  156.2030 C   0  0  0  0  0  2  0  0  0  0  0  0
  134.7690  135.0080  155.7260 C   0  0  0  0  0  0  0  0  0  0  0  0
  135.8900  135.8070  155.4660 C   0  0  0  0  0  3  0  0  0  0  0  0
  136.7180  136.2620  156.5080 C   0  0  0  0  0  0  0  0  0  0  0  0
  136.3940  135.9200  157.8260 C   0  0  0  0  0  3  0  0  0  0  0  0
  135.2750  135.1290  158.1010 C   0  0  0  0  0  3  0  0  0  0  0  0
  134.4700  134.6790  157.0540 C   0  0  0  0  0  0  0  0  0  0  0  0
  133.3720  133.9050  157.3240 O   0  0  0  0  0  0  0  0  0  0  0  0
  132.7870  133.6650  156.6330 H   0  0  0  0  0  0  0  0  0  0  0  0
  134.5300  133.9840  153.5920 C   0  0  0  0  0  1  0  0  0  0  0  0
  133.9250  134.5090  154.7660 O   0  0  0  0  0  0  0  0  0  0  0  0
  1 18  1  0  0  0  0
  2  1  1  0  0  0  0
  2  3  2  0  0  0  0
  4  1  1  0  0  0  0
  5  2  1  0  0  0  0
  6  5  1  0  0  0  0
  7  6  1  0  0  0  0
  7  8  1  0  0  0  0
  8  9  1  0  0  0  0
 10 11  1  0  0  0  0
 10  9  1  0  0  0  0
 11 12  1  0  0  0  0
 12 13  1  0  0  0  0
 14 15  1  0  0  0  0
 14 13  1  0  0  0  0
 16 15  1  0  0  0  0
 17 16  3  0  0  0  0
 18 21  1  0  0  0  0
 19 24  1  0  0  0  0
 20 19  2  0  0  0  0
 20 21  1  0  0  0  0
 21 22  2  0  0  0  0
 22 23  1  0  0  0  0
 24 25  1  0  0  0  0
 24 23  2  0  0  0  0
 26 25  1  0  0  0  0
 27 28  1  0  0  0  0
 28 19  1  0  0  0  0
M  END
>  <MODEL>
3

>  <REMARK>
 VINA RESULT:    -6.257      4.240      6.460
 INTER + INTRA:         -12.726
 INTER:                 -11.617
 INTRA:                  -1.109
 UNBOUND:                -0.799
  Name = CHEMBL1977302
  17 active torsions:
  status: ('A' for Active; 'I' for Inactive)
    1  A    between atoms: C_1  and  O_2
    2  A    between atoms: O_2  and  C_3
    3  A    between atoms: C_5  and  C_6
    4  A    between atoms: C_6  and  N_7
    5  A    between atoms: C_8  and  C_10
    6  A    between atoms: C_10  and  C_11
    7  A    between atoms: C_11  and  C_12
    8  A    between atoms: C_12  and  C_13
    9  A    between atoms: C_13  and  C_14
   10  A    between atoms: C_14  and  C_15
   11  A    between atoms: C_15  and  C_16
   12  A    between atoms: C_16  and  C_17
   13  A    between atoms: C_17  and  C_18
   14  A    between atoms: C_18  and  C_19
   15  A    between atoms: C_19  and  S_20
   16  A    between atoms: S_20  and  C_21
   17  A    between atoms: C_25  and  O_26
                            x       y       z     vdW  Elec       q    Type
                         _______ _______ _______ _____ _____    ______ ____

>  <TORSDO>
F 16

>  <SCORE>
-6.257

>  <RMSD_LB>
4.240

>  <RMSD_UB>
6.460

$$$$
CHEMBL1977302
 OpenBabel10172500553D

 28 28  0  0  0  0  0  0  0  0999 V2000
  142.2470  139.2650  152.6090 N   0  0  0  0  0  0  0  0  0  0  0  0
  143.5530  139.6240  152.3740 C   0  0  0  0  0  0  0  0  0  0  0  0
  144.4190  139.6140  153.2400 O   0  0  0  0  0  0  0  0  0  0  0  0
  141.6010  139.2770  151.8660 H   0  0  0  0  0  0  0  0  0  0  0  0
  143.8060  140.0630  150.9490 C   0  0  0  0  0  2  0  0  0  0  0  0
  145.3020  140.1310  150.6440 C   0  0  0  0  0  2  0  0  0  0  0  0
  145.7280  141.4650  150.0360 C   0  0  0  0  0  2  0  0  0  0  0  0
  145.5630  142.6150  151.0280 C   0  0  0  0  0  2  0  0  0  0  0  0
  146.2190  142.2980  152.3640 C   0  0  0  0  0  2  0  0  0  0  0  0
  147.7390  142.2530  152.2100 C   0  0  0  0  0  2  0  0  0  0  0  0
  148.4180  142.0710  153.5630 C   0  0  0  0  0  2  0  0  0  0  0  0
  149.0000  140.6640  153.7040 C   0  0  0  0  0  2  0  0  0  0  0  0
  147.9400  139.5930  153.4290 C   0  0  0  0  0  2  0  0  0  0  0  0
  148.5410  138.1850  153.4530 C   0  0  0  0  0  2  0  0  0  0  0  0
  147.8820  137.2670  154.8810 S   0  0  0  0  0  0  0  0  0  0  0  0
  146.4050  136.7660  154.2250 C   0  0  0  0  0  0  0  0  0  0  0  0
  145.3980  136.4280  153.7690 N   0  0  0  0  0  0  0  0  0  0  0  0
  141.8050  138.8730  153.9260 C   0  0  0  0  0  2  0  0  0  0  0  0
  138.2880  138.0050  155.1560 C   0  0  0  0  0  0  0  0  0  0  0  0
  139.6250  138.4250  155.1290 C   0  0  0  0  0  3  0  0  0  0  0  0
  140.3770  138.3860  153.9410 C   0  0  0  0  0  0  0  0  0  0  0  0
  139.7730  137.8990  152.7750 C   0  0  0  0  0  3  0  0  0  0  0  0
  138.4420  137.4720  152.7900 C   0  0  0  0  0  3  0  0  0  0  0  0
  137.7090  137.5260  153.9750 C   0  0  0  0  0  0  0  0  0  0  0  0
  136.4050  137.1050  153.9880 O   0  0  0  0  0  0  0  0  0  0  0  0
  135.8860  137.1640  153.2110 H   0  0  0  0  0  0  0  0  0  0  0  0
  138.0540  137.5650  157.4830 C   0  0  0  0  0  1  0  0  0  0  0  0
  137.4830  138.0300  156.2670 O   0  0  0  0  0  0  0  0  0  0  0  0
  1 18  1  0  0  0  0
  2  1  1  0  0  0  0
  2  3  2  0  0  0  0
  4  1  1  0  0  0  0
  5  2  1  0  0  0  0
  6  5  1  0  0  0  0
  7  6  1  0  0  0  0
  7  8  1  0  0  0  0
  8  9  1  0  0  0  0
 10  9  1  0  0  0  0
 10 11  1  0  0  0  0
 11 12  1  0  0  0  0
 13 14  1  0  0  0  0
 13 12  1  0  0  0  0
 14 15  1  0  0  0  0
 16 15  1  0  0  0  0
 17 16  3  0  0  0  0
 18 21  1  0  0  0  0
 19 28  1  0  0  0  0
 20 19  1  0  0  0  0
 21 20  2  0  0  0  0
 22 23  2  0  0  0  0
 22 21  1  0  0  0  0
 23 24  1  0  0  0  0
 24 25  1  0  0  0  0
 24 19  2  0  0  0  0
 26 25  1  0  0  0  0
 28 27  1  0  0  0  0
M  END
>  <MODEL>
4

>  <REMARK>
 VINA RESULT:    -5.966      2.031      2.546
 INTER + INTRA:         -12.171
 INTER:                 -11.090
 INTRA:                  -1.081
 UNBOUND:                -0.799
  Name = CHEMBL1977302
  17 active torsions:
  status: ('A' for Active; 'I' for Inactive)
    1  A    between atoms: C_1  and  O_2
    2  A    between atoms: O_2  and  C_3
    3  A    between atoms: C_5  and  C_6
    4  A    between atoms: C_6  and  N_7
    5  A    between atoms: C_8  and  C_10
    6  A    between atoms: C_10  and  C_11
    7  A    between atoms: C_11  and  C_12
    8  A    between atoms: C_12  and  C_13
    9  A    between atoms: C_13  and  C_14
   10  A    between atoms: C_14  and  C_15
   11  A    between atoms: C_15  and  C_16
   12  A    between atoms: C_16  and  C_17
   13  A    between atoms: C_17  and  C_18
   14  A    between atoms: C_18  and  C_19
   15  A    between atoms: C_19  and  S_20
   16  A    between atoms: S_20  and  C_21
   17  A    between atoms: C_25  and  O_26
                            x       y       z     vdW  Elec       q    Type
                         _______ _______ _______ _____ _____    ______ ____

>  <TORSDO>
F 16

>  <SCORE>
-5.966

>  <RMSD_LB>
2.031

>  <RMSD_UB>
2.546

$$$$
CHEMBL1977302
 OpenBabel10172500553D

 28 28  0  0  0  0  0  0  0  0999 V2000
  139.4080  137.7610  151.3130 N   0  0  0  0  0  0  0  0  0  0  0  0
  138.1320  137.7710  150.7980 C   0  0  0  0  0  0  0  0  0  0  0  0
  137.7360  138.6110  150.0010 O   0  0  0  0  0  0  0  0  0  0  0  0
  139.6710  137.0480  151.9370 H   0  0  0  0  0  0  0  0  0  0  0  0
  137.2590  136.6620  151.3430 C   0  0  0  0  0  2  0  0  0  0  0  0
  136.1240  136.3220  150.3780 C   0  0  0  0  0  2  0  0  0  0  0  0
  136.0320  134.8310  150.0640 C   0  0  0  0  0  2  0  0  0  0  0  0
  135.5470  134.0300  151.2700 C   0  0  0  0  0  2  0  0  0  0  0  0
  134.0300  134.0750  151.3980 C   0  0  0  0  0  2  0  0  0  0  0  0
  133.6300  134.6570  152.7530 C   0  0  0  0  0  2  0  0  0  0  0  0
  134.7950  134.5970  153.7360 C   0  0  0  0  0  2  0  0  0  0  0  0
  134.5840  135.5660  154.9000 C   0  0  0  0  0  2  0  0  0  0  0  0
  135.7920  135.5760  155.8420 C   0  0  0  0  0  2  0  0  0  0  0  0
  137.0040  136.2570  155.1990 C   0  0  0  0  0  2  0  0  0  0  0  0
  137.4460  137.7400  156.1560 S   0  0  0  0  0  0  0  0  0  0  0  0
  138.2220  138.6280  154.9410 C   0  0  0  0  0  0  0  0  0  0  0  0
  138.7500  139.2420  154.1170 N   0  0  0  0  0  0  0  0  0  0  0  0
  140.3660  138.7790  150.9530 C   0  0  0  0  0  2  0  0  0  0  0  0
  143.8330  139.6060  152.3420 C   0  0  0  0  0  0  0  0  0  0  0  0
  142.6710  139.6270  151.5590 C   0  0  0  0  0  3  0  0  0  0  0  0
  141.6220  138.7180  151.7870 C   0  0  0  0  0  0  0  0  0  0  0  0
  141.7610  137.7680  152.8050 C   0  0  0  0  0  3  0  0  0  0  0  0
  142.9160  137.7320  153.5910 C   0  0  0  0  0  3  0  0  0  0  0  0
  143.9430  138.6460  153.3560 C   0  0  0  0  0  0  0  0  0  0  0  0
  145.0770  138.6090  154.1250 O   0  0  0  0  0  0  0  0  0  0  0  0
  145.4900  139.4070  154.3890 H   0  0  0  0  0  0  0  0  0  0  0  0
  144.9500  141.2090  150.9840 C   0  0  0  0  0  1  0  0  0  0  0  0
  144.8900  140.4680  152.1960 O   0  0  0  0  0  0  0  0  0  0  0  0
  1  4  1  0  0  0  0
  2  1  1  0  0  0  0
  2  5  1  0  0  0  0
  3  2  2  0  0  0  0
  6  5  1  0  0  0  0
  7  6  1  0  0  0  0
  7  8  1  0  0  0  0
  8  9  1  0  0  0  0
  9 10  1  0  0  0  0
 10 11  1  0  0  0  0
 11 12  1  0  0  0  0
 12 13  1  0  0  0  0
 14 13  1  0  0  0  0
 14 15  1  0  0  0  0
 16 15  1  0  0  0  0
 17 16  3  0  0  0  0
 18  1  1  0  0  0  0
 18 21  1  0  0  0  0
 19 24  1  0  0  0  0
 20 21  1  0  0  0  0
 20 19  2  0  0  0  0
 21 22  2  0  0  0  0
 22 23  1  0  0  0  0
 24 23  2  0  0  0  0
 24 25  1  0  0  0  0
 25 26  1  0  0  0  0
 27 28  1  0  0  0  0
 28 19  1  0  0  0  0
M  END
>  <MODEL>
5

>  <REMARK>
 VINA RESULT:    -5.820      4.256      9.242
 INTER + INTRA:         -11.894
 INTER:                 -10.200
 INTRA:                  -1.693
 UNBOUND:                -0.799
  Name = CHEMBL1977302
  17 active torsions:
  status: ('A' for Active; 'I' for Inactive)
    1  A    between atoms: C_1  and  O_2
    2  A    between atoms: O_2  and  C_3
    3  A    between atoms: C_5  and  C_6
    4  A    between atoms: C_6  and  N_7
    5  A    between atoms: C_8  and  C_10
    6  A    between atoms: C_10  and  C_11
    7  A    between atoms: C_11  and  C_12
    8  A    between atoms: C_12  and  C_13
    9  A    between atoms: C_13  and  C_14
   10  A    between atoms: C_14  and  C_15
   11  A    between atoms: C_15  and  C_16
   12  A    between atoms: C_16  and  C_17
   13  A    between atoms: C_17  and  C_18
   14  A    between atoms: C_18  and  C_19
   15  A    between atoms: C_19  and  S_20
   16  A    between atoms: S_20  and  C_21
   17  A    between atoms: C_25  and  O_26
                            x       y       z     vdW  Elec       q    Type
                         _______ _______ _______ _____ _____    ______ ____

>  <TORSDO>
F 16

>  <SCORE>
-5.820

>  <RMSD_LB>
4.256

>  <RMSD_UB>
9.242

$$$$
CHEMBL1977302
 OpenBabel10172500553D

 28 28  0  0  0  0  0  0  0  0999 V2000
  139.7400  138.3520  150.1400 N   0  0  0  0  0  0  0  0  0  0  0  0
  139.6750  139.6430  149.6710 C   0  0  0  0  0  0  0  0  0  0  0  0
  140.6420  140.3940  149.6350 O   0  0  0  0  0  0  0  0  0  0  0  0
  138.9310  137.7920  150.1260 H   0  0  0  0  0  0  0  0  0  0  0  0
  138.2860  140.0520  149.2350 C   0  0  0  0  0  2  0  0  0  0  0  0
  137.4220  138.8340  148.9110 C   0  0  0  0  0  2  0  0  0  0  0  0
  136.8170  138.8860  147.5090 C   0  0  0  0  0  2  0  0  0  0  0  0
  135.8090  137.7600  147.2890 C   0  0  0  0  0  2  0  0  0  0  0  0
  135.4770  137.0440  148.5910 C   0  0  0  0  0  2  0  0  0  0  0  0
  135.6560  135.5360  148.4260 C   0  0  0  0  0  2  0  0  0  0  0  0
  134.3130  134.8170  148.4960 C   0  0  0  0  0  2  0  0  0  0  0  0
  134.2880  133.8050  149.6410 C   0  0  0  0  0  2  0  0  0  0  0  0
  133.0670  134.0130  150.5430 C   0  0  0  0  0  2  0  0  0  0  0  0
  133.0710  135.4030  151.1870 C   0  0  0  0  0  2  0  0  0  0  0  0
  134.5720  135.6010  152.1960 S   0  0  0  0  0  0  0  0  0  0  0  0
  133.9020  135.3710  153.7330 C   0  0  0  0  0  0  0  0  0  0  0  0
  133.4360  135.2180  154.7790 N   0  0  0  0  0  0  0  0  0  0  0  0
  140.9720  137.8050  150.6540 C   0  0  0  0  0  2  0  0  0  0  0  0
  140.1290  138.5850  154.3030 C   0  0  0  0  0  0  0  0  0  0  0  0
  140.0250  138.4350  152.9140 C   0  0  0  0  0  3  0  0  0  0  0  0
  141.1150  137.9900  152.1450 C   0  0  0  0  0  0  0  0  0  0  0  0
  142.3270  137.7130  152.7890 C   0  0  0  0  0  3  0  0  0  0  0  0
  142.4470  137.8630  154.1730 C   0  0  0  0  0  3  0  0  0  0  0  0
  141.3520  138.2970  154.9210 C   0  0  0  0  0  0  0  0  0  0  0  0
  141.4710  138.4460  156.2780 O   0  0  0  0  0  0  0  0  0  0  0  0
  140.8950  139.0240  156.7390 H   0  0  0  0  0  0  0  0  0  0  0  0
  137.8700  138.3080  154.9960 C   0  0  0  0  0  1  0  0  0  0  0  0
  139.1090  138.9930  155.1240 O   0  0  0  0  0  0  0  0  0  0  0  0
  1 18  1  0  0  0  0
  2  1  1  0  0  0  0
  3  2  2  0  0  0  0
  4  1  1  0  0  0  0
  5  2  1  0  0  0  0
  6  5  1  0  0  0  0
  7  6  1  0  0  0  0
  8  7  1  0  0  0  0
  8  9  1  0  0  0  0
 10 11  1  0  0  0  0
 10  9  1  0  0  0  0
 11 12  1  0  0  0  0
 12 13  1  0  0  0  0
 13 14  1  0  0  0  0
 14 15  1  0  0  0  0
 15 16  1  0  0  0  0
 16 17  3  0  0  0  0
 18 21  1  0  0  0  0
 19 24  1  0  0  0  0
 19 28  1  0  0  0  0
 20 19  2  0  0  0  0
 21 22  2  0  0  0  0
 21 20  1  0  0  0  0
 22 23  1  0  0  0  0
 23 24  2  0  0  0  0
 24 25  1  0  0  0  0
 25 26  1  0  0  0  0
 27 28  1  0  0  0  0
M  END
>  <MODEL>
6

>  <REMARK>
 VINA RESULT:    -5.790      5.208      9.487
 INTER + INTRA:         -11.836
 INTER:                 -10.690
 INTRA:                  -1.146
 UNBOUND:                -0.799
  Name = CHEMBL1977302
  17 active torsions:
  status: ('A' for Active; 'I' for Inactive)
    1  A    between atoms: C_1  and  O_2
    2  A    between atoms: O_2  and  C_3
    3  A    between atoms: C_5  and  C_6
    4  A    between atoms: C_6  and  N_7
    5  A    between atoms: C_8  and  C_10
    6  A    between atoms: C_10  and  C_11
    7  A    between atoms: C_11  and  C_12
    8  A    between atoms: C_12  and  C_13
    9  A    between atoms: C_13  and  C_14
   10  A    between atoms: C_14  and  C_15
   11  A    between atoms: C_15  and  C_16
   12  A    between atoms: C_16  and  C_17
   13  A    between atoms: C_17  and  C_18
   14  A    between atoms: C_18  and  C_19
   15  A    between atoms: C_19  and  S_20
   16  A    between atoms: S_20  and  C_21
   17  A    between atoms: C_25  and  O_26
                            x       y       z     vdW  Elec       q    Type
                         _______ _______ _______ _____ _____    ______ ____

>  <TORSDO>
F 16

>  <SCORE>
-5.790

>  <RMSD_LB>
5.208

>  <RMSD_UB>
9.487

$$$$
CHEMBL1977302
 OpenBabel10172500553D

 28 28  0  0  0  0  0  0  0  0999 V2000
  134.7530  134.8130  146.3580 N   0  0  0  0  0  0  0  0  0  0  0  0
  134.6970  133.5800  145.7520 C   0  0  0  0  0  0  0  0  0  0  0  0
  133.6840  132.8930  145.7180 O   0  0  0  0  0  0  0  0  0  0  0  0
  135.5920  135.3250  146.3370 H   0  0  0  0  0  0  0  0  0  0  0  0
  136.0200  133.1440  145.1620 C   0  0  0  0  0  2  0  0  0  0  0  0
  135.8810  131.8290  144.3950 C   0  0  0  0  0  2  0  0  0  0  0  0
  137.0370  131.5770  143.4290 C   0  0  0  0  0  2  0  0  0  0  0  0
  137.5040  132.8680  142.7610 C   0  0  0  0  0  2  0  0  0  0  0  0
  137.9800  132.6210  141.3370 C   0  0  0  0  0  2  0  0  0  0  0  0
  138.0310  133.9350  140.5600 C   0  0  0  0  0  2  0  0  0  0  0  0
  136.6910  134.2240  139.8910 C   0  0  0  0  0  2  0  0  0  0  0  0
  136.4160  135.7270  139.8310 C   0  0  0  0  0  2  0  0  0  0  0  0
  135.9230  136.2570  141.1820 C   0  0  0  0  0  2  0  0  0  0  0  0
  134.8070  137.2910  141.0090 C   0  0  0  0  0  2  0  0  0  0  0  0
  135.5050  138.9670  141.1430 S   0  0  0  0  0  0  0  0  0  0  0  0
  136.0380  138.9130  142.7490 C   0  0  0  0  0  0  0  0  0  0  0  0
  136.4030  138.8860  143.8450 N   0  0  0  0  0  0  0  0  0  0  0  0
  133.6000  135.3690  147.0270 C   0  0  0  0  0  2  0  0  0  0  0  0
  134.2880  135.4810  150.7880 C   0  0  0  0  0  0  0  0  0  0  0  0
  134.3350  135.7610  149.4160 C   0  0  0  0  0  3  0  0  0  0  0  0
  133.5600  135.0310  148.4970 C   0  0  0  0  0  0  0  0  0  0  0  0
  132.7460  133.9960  148.9720 C   0  0  0  0  0  3  0  0  0  0  0  0
  132.6940  133.7030  150.3380 C   0  0  0  0  0  3  0  0  0  0  0  0
  133.4630  134.4430  151.2360 C   0  0  0  0  0  0  0  0  0  0  0  0
  133.4130  134.1530  152.5740 O   0  0  0  0  0  0  0  0  0  0  0  0
  132.8520  133.4700  152.8850 H   0  0  0  0  0  0  0  0  0  0  0  0
  136.3620  136.4340  151.4640 C   0  0  0  0  0  1  0  0  0  0  0  0
  134.9960  136.1590  151.7490 O   0  0  0  0  0  0  0  0  0  0  0  0
  1 18  1  0  0  0  0
  2  1  1  0  0  0  0
  3  2  2  0  0  0  0
  4  1  1  0  0  0  0
  5  2  1  0  0  0  0
  6  5  1  0  0  0  0
  7  6  1  0  0  0  0
  8  7  1  0  0  0  0
  9  8  1  0  0  0  0
 10  9  1  0  0  0  0
 11 10  1  0  0  0  0
 12 11  1  0  0  0  0
 12 13  1  0  0  0  0
 14 15  1  0  0  0  0
 14 13  1  0  0  0  0
 15 16  1  0  0  0  0
 16 17  3  0  0  0  0
 18 21  1  0  0  0  0
 19 24  1  0  0  0  0
 19 28  1  0  0  0  0
 20 19  2  0  0  0  0
 21 22  2  0  0  0  0
 21 20  1  0  0  0  0
 22 23  1  0  0  0  0
 23 24  2  0  0  0  0
 24 25  1  0  0  0  0
 25 26  1  0  0  0  0
 27 28  1  0  0  0  0
M  END
>  <MODEL>
7

>  <REMARK>
 VINA RESULT:    -5.682      9.855     13.013
 INTER + INTRA:         -11.630
 INTER:                 -10.531
 INTRA:                  -1.099
 UNBOUND:                -0.799
  Name = CHEMBL1977302
  17 active torsions:
  status: ('A' for Active; 'I' for Inactive)
    1  A    between atoms: C_1  and  O_2
    2  A    between atoms: O_2  and  C_3
    3  A    between atoms: C_5  and  C_6
    4  A    between atoms: C_6  and  N_7
    5  A    between atoms: C_8  and  C_10
    6  A    between atoms: C_10  and  C_11
    7  A    between atoms: C_11  and  C_12
    8  A    between atoms: C_12  and  C_13
    9  A    between atoms: C_13  and  C_14
   10  A    between atoms: C_14  and  C_15
   11  A    between atoms: C_15  and  C_16
   12  A    between atoms: C_16  and  C_17
   13  A    between atoms: C_17  and  C_18
   14  A    between atoms: C_18  and  C_19
   15  A    between atoms: C_19  and  S_20
   16  A    between atoms: S_20  and  C_21
   17  A    between atoms: C_25  and  O_26
                            x       y       z     vdW  Elec       q    Type
                         _______ _______ _______ _____ _____    ______ ____

>  <TORSDO>
F 16

>  <SCORE>
-5.682

>  <RMSD_LB>
9.855

>  <RMSD_UB>
13.013

$$$$
CHEMBL1977302
 OpenBabel10172500553D

 28 28  0  0  0  0  0  0  0  0999 V2000
  134.4760  134.6510  152.0190 N   0  0  0  0  0  0  0  0  0  0  0  0
  133.6330  134.9660  150.9790 C   0  0  0  0  0  0  0  0  0  0  0  0
  133.5420  136.0910  150.5050 O   0  0  0  0  0  0  0  0  0  0  0  0
  134.5170  133.7240  152.3440 H   0  0  0  0  0  0  0  0  0  0  0  0
  132.8050  133.7930  150.5040 C   0  0  0  0  0  2  0  0  0  0  0  0
  133.0890  133.4680  149.0380 C   0  0  0  0  0  2  0  0  0  0  0  0
  134.3100  132.5690  148.8510 C   0  0  0  0  0  2  0  0  0  0  0  0
  135.1360  132.9880  147.6370 C   0  0  0  0  0  2  0  0  0  0  0  0
  135.7650  131.7860  146.9470 C   0  0  0  0  0  2  0  0  0  0  0  0
  136.6470  132.2440  145.7860 C   0  0  0  0  0  2  0  0  0  0  0  0
  136.0960  131.7440  144.4540 C   0  0  0  0  0  2  0  0  0  0  0  0
  137.0870  131.9950  143.3180 C   0  0  0  0  0  2  0  0  0  0  0  0
  137.5100  133.4670  143.2630 C   0  0  0  0  0  2  0  0  0  0  0  0
  136.3910  134.3560  142.7130 C   0  0  0  0  0  2  0  0  0  0  0  0
  135.8720  135.5410  143.9930 S   0  0  0  0  0  0  0  0  0  0  0  0
  135.1540  136.7140  143.0050 C   0  0  0  0  0  0  0  0  0  0  0  0
  134.6730  137.5160  142.3270 N   0  0  0  0  0  0  0  0  0  0  0  0
  135.3020  135.6580  152.6410 C   0  0  0  0  0  2  0  0  0  0  0  0
  136.5880  135.8790  156.2370 C   0  0  0  0  0  0  0  0  0  0  0  0
  136.5010  135.9950  154.8440 C   0  0  0  0  0  3  0  0  0  0  0  0
  135.3910  135.4950  154.1390 C   0  0  0  0  0  0  0  0  0  0  0  0
  134.3710  134.8560  154.8520 C   0  0  0  0  0  3  0  0  0  0  0  0
  134.4470  134.7290  156.2420 C   0  0  0  0  0  3  0  0  0  0  0  0
  135.5510  135.2380  156.9250 C   0  0  0  0  0  0  0  0  0  0  0  0
  135.6260  135.1110  158.2880 O   0  0  0  0  0  0  0  0  0  0  0  0
  135.0510  135.6070  158.8370 H   0  0  0  0  0  0  0  0  0  0  0  0
  137.7940  137.7680  157.0380 C   0  0  0  0  0  1  0  0  0  0  0  0
  137.6250  136.3570  156.9980 O   0  0  0  0  0  0  0  0  0  0  0  0
  1  4  1  0  0  0  0
  1 18  1  0  0  0  0
  2  1  1  0  0  0  0
  3  2  2  0  0  0  0
  5  2  1  0  0  0  0
  6  5  1  0  0  0  0
  7  6  1  0  0  0  0
  8  7  1  0  0  0  0
  9  8  1  0  0  0  0
 10  9  1  0  0  0  0
 11 10  1  0  0  0  0
 12 11  1  0  0  0  0
 13 12  1  0  0  0  0
 14 13  1  0  0  0  0
 14 15  1  0  0  0  0
 16 15  1  0  0  0  0
 17 16  3  0  0  0  0
 18 21  1  0  0  0  0
 19 24  1  0  0  0  0
 19 28  1  0  0  0  0
 20 19  2  0  0  0  0
 21 20  1  0  0  0  0
 21 22  2  0  0  0  0
 22 23  1  0  0  0  0
 23 24  2  0  0  0  0
 24 25  1  0  0  0  0
 25 26  1  0  0  0  0
 28 27  1  0  0  0  0
M  END
>  <MODEL>
8

>  <REMARK>
 VINA RESULT:    -5.625      9.415     12.325
 INTER + INTRA:         -11.522
 INTER:                 -10.723
 INTRA:                  -0.799
 UNBOUND:                -0.799
  Name = CHEMBL1977302
  17 active torsions:
  status: ('A' for Active; 'I' for Inactive)
    1  A    between atoms: C_1  and  O_2
    2  A    between atoms: O_2  and  C_3
    3  A    between atoms: C_5  and  C_6
    4  A    between atoms: C_6  and  N_7
    5  A    between atoms: C_8  and  C_10
    6  A    between atoms: C_10  and  C_11
    7  A    between atoms: C_11  and  C_12
    8  A    between atoms: C_12  and  C_13
    9  A    between atoms: C_13  and  C_14
   10  A    between atoms: C_14  and  C_15
   11  A    between atoms: C_15  and  C_16
   12  A    between atoms: C_16  and  C_17
   13  A    between atoms: C_17  and  C_18
   14  A    between atoms: C_18  and  C_19
   15  A    between atoms: C_19  and  S_20
   16  A    between atoms: S_20  and  C_21
   17  A    between atoms: C_25  and  O_26
                            x       y       z     vdW  Elec       q    Type
                         _______ _______ _______ _____ _____    ______ ____

>  <TORSDO>
F 16

>  <SCORE>
-5.625

>  <RMSD_LB>
9.415

>  <RMSD_UB>
12.325

$$$$
CHEMBL1977302
 OpenBabel10172500553D

 28 28  0  0  0  0  0  0  0  0999 V2000
  134.9990  135.7080  153.4150 N   0  0  0  0  0  0  0  0  0  0  0  0
  134.5770  135.0210  152.3010 C   0  0  0  0  0  0  0  0  0  0  0  0
  134.2470  133.8420  152.3240 O   0  0  0  0  0  0  0  0  0  0  0  0
  135.2340  136.6600  153.3360 H   0  0  0  0  0  0  0  0  0  0  0  0
  134.5940  135.8570  151.0410 C   0  0  0  0  0  2  0  0  0  0  0  0
  135.5580  135.2810  150.0040 C   0  0  0  0  0  2  0  0  0  0  0  0
  137.0240  135.5580  150.3320 C   0  0  0  0  0  2  0  0  0  0  0  0
  137.2860  137.0500  150.5230 C   0  0  0  0  0  2  0  0  0  0  0  0
  137.8230  137.3500  151.9160 C   0  0  0  0  0  2  0  0  0  0  0  0
  139.3290  137.5990  151.8600 C   0  0  0  0  0  2  0  0  0  0  0  0
  139.8550  138.0590  153.2150 C   0  0  0  0  0  2  0  0  0  0  0  0
  141.3840  138.0720  153.2380 C   0  0  0  0  0  2  0  0  0  0  0  0
  141.9530  138.8270  152.0330 C   0  0  0  0  0  2  0  0  0  0  0  0
  143.4420  139.1360  152.2110 C   0  0  0  0  0  2  0  0  0  0  0  0
  144.3220  138.8080  150.6520 S   0  0  0  0  0  0  0  0  0  0  0  0
  143.7510  137.2450  150.3390 C   0  0  0  0  0  0  0  0  0  0  0  0
  143.3700  136.1760  150.1230 N   0  0  0  0  0  0  0  0  0  0  0  0
  135.1040  135.0570  154.6990 C   0  0  0  0  0  2  0  0  0  0  0  0
  136.4810  136.3100  158.0410 C   0  0  0  0  0  0  0  0  0  0  0  0
  135.7780  135.5670  157.0840 C   0  0  0  0  0  3  0  0  0  0  0  0
  135.8440  135.8900  155.7170 C   0  0  0  0  0  0  0  0  0  0  0  0
  136.6140  136.9890  155.3200 C   0  0  0  0  0  3  0  0  0  0  0  0
  137.3170  137.7430  156.2640 C   0  0  0  0  0  3  0  0  0  0  0  0
  137.2460  137.4020  157.6150 C   0  0  0  0  0  0  0  0  0  0  0  0
  137.9340  138.1430  158.5400 O   0  0  0  0  0  0  0  0  0  0  0  0
  138.7190  137.8040  158.9230 H   0  0  0  0  0  0  0  0  0  0  0  0
  136.4350  134.6800  159.7740 C   0  0  0  0  0  1  0  0  0  0  0  0
  136.4840  136.0470  159.3870 O   0  0  0  0  0  0  0  0  0  0  0  0
  1 18  1  0  0  0  0
  2  3  2  0  0  0  0
  2  1  1  0  0  0  0
  4  1  1  0  0  0  0
  5  2  1  0  0  0  0
  6  7  1  0  0  0  0
  6  5  1  0  0  0  0
  7  8  1  0  0  0  0
  8  9  1  0  0  0  0
 10  9  1  0  0  0  0
 10 11  1  0  0  0  0
 11 12  1  0  0  0  0
 13 14  1  0  0  0  0
 13 12  1  0  0  0  0
 15 14  1  0  0  0  0
 16 15  1  0  0  0  0
 17 16  3  0  0  0  0
 18 21  1  0  0  0  0
 19 28  1  0  0  0  0
 20 19  2  0  0  0  0
 21 20  1  0  0  0  0
 22 21  2  0  0  0  0
 22 23  1  0  0  0  0
 23 24  2  0  0  0  0
 24 19  1  0  0  0  0
 24 25  1  0  0  0  0
 25 26  1  0  0  0  0
 28 27  1  0  0  0  0
M  END
>  <MODEL>
9

>  <REMARK>
 VINA RESULT:    -5.577      4.645      8.138
 INTER + INTRA:         -11.429
 INTER:                 -10.062
 INTRA:                  -1.367
 UNBOUND:                -0.799
  Name = CHEMBL1977302
  17 active torsions:
  status: ('A' for Active; 'I' for Inactive)
    1  A    between atoms: C_1  and  O_2
    2  A    between atoms: O_2  and  C_3
    3  A    between atoms: C_5  and  C_6
    4  A    between atoms: C_6  and  N_7
    5  A    between atoms: C_8  and  C_10
    6  A    between atoms: C_10  and  C_11
    7  A    between atoms: C_11  and  C_12
    8  A    between atoms: C_12  and  C_13
    9  A    between atoms: C_13  and  C_14
   10  A    between atoms: C_14  and  C_15
   11  A    between atoms: C_15  and  C_16
   12  A    between atoms: C_16  and  C_17
   13  A    between atoms: C_17  and  C_18
   14  A    between atoms: C_18  and  C_19
   15  A    between atoms: C_19  and  S_20
   16  A    between atoms: S_20  and  C_21
   17  A    between atoms: C_25  and  O_26
                            x       y       z     vdW  Elec       q    Type
                         _______ _______ _______ _____ _____    ______ ____

>  <TORSDO>
F 16

>  <SCORE>
-5.577

>  <RMSD_LB>
4.645

>  <RMSD_UB>
8.138

$$$$
