CHEMBL318743
 OpenBabel10172500543D

 29 30  0  0  0  0  0  0  0  0999 V2000
  143.6050  138.7470  149.0500 C   0  0  0  0  0  2  0  0  0  0  0  0
  143.9420  137.3730  149.5490 C   0  0  0  0  0  0  0  0  0  0  0  0
  144.7640  136.6700  148.9570 O   0  0  0  0  0  0  0  0  0  0  0  0
  143.2300  136.8960  150.8000 C   0  0  0  0  0  2  0  0  0  0  0  0
  141.7220  137.0100  150.6000 C   0  0  0  0  0  2  0  0  0  0  0  0
  140.9930  138.2610  154.1360 C   0  0  0  0  0  0  0  0  0  0  0  0
  141.6750  137.7970  153.0060 C   0  0  0  0  0  3  0  0  0  0  0  0
  140.9920  137.5440  151.8030 C   0  0  0  0  0  0  0  0  0  0  0  0
  139.6120  137.7640  151.7450 C   0  0  0  0  0  3  0  0  0  0  0  0
  138.9180  138.2210  152.8650 C   0  0  0  0  0  3  0  0  0  0  0  0
  139.6100  138.4670  154.0510 C   0  0  0  0  0  0  0  0  0  0  0  0
  142.4620  139.6420  155.4010 C   0  0  0  0  0  1  0  0  0  0  0  0
  141.5850  138.5250  155.3430 O   0  0  0  0  0  0  0  0  0  0  0  0
  138.9270  138.9150  155.1520 O   0  0  0  0  0  0  0  0  0  0  0  0
  139.1480  138.5910  156.0030 H   0  0  0  0  0  0  0  0  0  0  0  0
  144.1990  139.8730  149.8530 C   0  0  0  0  0  0  0  0  0  0  0  0
  143.6180  140.3920  150.8000 O   0  0  0  0  0  0  0  0  0  0  0  0
  145.5760  140.3530  149.4250 C   0  0  0  0  0  2  0  0  0  0  0  0
  146.6500  139.5350  150.1320 C   0  0  0  0  0  2  0  0  0  0  0  0
  147.1410  140.1580  151.4090 C   0  0  0  0  0  0  0  0  0  0  0  0
  147.5050  141.5050  151.4260 C   0  0  0  0  0  3  0  0  0  0  0  0
  147.9900  142.0890  152.5950 C   0  0  0  0  0  3  0  0  0  0  0  0
  148.1130  141.3320  153.7640 C   0  0  0  0  0  0  0  0  0  0  0  0
  147.7550  139.9790  153.7710 C   0  0  0  0  0  0  0  0  0  0  0  0
  147.2670  139.4060  152.5860 C   0  0  0  0  0  3  0  0  0  0  0  0
  148.5850  141.9570  154.8840 O   0  0  0  0  0  0  0  0  0  0  0  0
  148.5760  142.8920  154.9380 H   0  0  0  0  0  0  0  0  0  0  0  0
  147.8140  139.0850  154.8070 O   0  0  0  0  0  0  0  0  0  0  0  0
  146.6630  138.2990  155.0750 C   0  0  0  0  0  1  0  0  0  0  0  0
  1  2  1  0  0  0  0
  1 16  1  0  0  0  0
  2  4  1  0  0  0  0
  3  2  2  0  0  0  0
  5  4  1  0  0  0  0
  5  8  1  0  0  0  0
  6 13  1  0  0  0  0
  7  6  2  0  0  0  0
  8  7  1  0  0  0  0
  9  8  2  0  0  0  0
  9 10  1  0  0  0  0
 10 11  2  0  0  0  0
 11  6  1  0  0  0  0
 11 14  1  0  0  0  0
 13 12  1  0  0  0  0
 14 15  1  0  0  0  0
 16 17  2  0  0  0  0
 18 16  1  0  0  0  0
 18 19  1  0  0  0  0
 19 20  1  0  0  0  0
 20 21  2  0  0  0  0
 20 25  1  0  0  0  0
 21 22  1  0  0  0  0
 22 23  2  0  0  0  0
 23 24  1  0  0  0  0
 23 26  1  0  0  0  0
 24 28  1  0  0  0  0
 25 24  2  0  0  0  0
 26 27  1  0  0  0  0
 28 29  1  0  0  0  0
M  END
>  <MODEL>
1

>  <REMARK>
 VINA RESULT:    -5.582      0.000      0.000
 INTER + INTRA:         -12.429
 INTER:                 -11.018
 INTRA:                  -1.411
 UNBOUND:                -3.258
  Name = CHEMBL318743
  14 active torsions:
  status: ('A' for Active; 'I' for Inactive)
    1  A    between atoms: C_1  and  O_2
    2  A    between atoms: O_2  and  C_3
    3  A    between atoms: C_5  and  C_6
    4  A    between atoms: C_6  and  C_7
    5  A    between atoms: C_7  and  C_8
    6  A    between atoms: C_8  and  C_10
    7  A    between atoms: C_10  and  C_11
    8  A    between atoms: C_11  and  C_13
    9  A    between atoms: C_13  and  C_14
   10  A    between atoms: C_14  and  C_15
   11  A    between atoms: C_18  and  O_19
   12  A    between atoms: C_20  and  O_21
   13  A    between atoms: O_21  and  C_22
   14  A    between atoms: C_26  and  O_27
                            x       y       z     vdW  Elec       q    Type
                         _______ _______ _______ _____ _____    ______ ____

>  <TORSDO>
F 12

>  <SCORE>
-5.582

>  <RMSD_LB>
0.000

>  <RMSD_UB>
0.000

$$$$
CHEMBL318743
 OpenBabel10172500543D

 29 30  0  0  0  0  0  0  0  0999 V2000
  144.8230  138.0020  149.5780 C   0  0  0  0  0  2  0  0  0  0  0  0
  145.2370  136.5770  149.3580 C   0  0  0  0  0  0  0  0  0  0  0  0
  144.9300  135.9810  148.3230 O   0  0  0  0  0  0  0  0  0  0  0  0
  146.0400  135.9110  150.4600 C   0  0  0  0  0  2  0  0  0  0  0  0
  147.2080  136.8110  150.8520 C   0  0  0  0  0  2  0  0  0  0  0  0
  147.5640  139.2040  153.8090 C   0  0  0  0  0  0  0  0  0  0  0  0
  147.6600  138.6560  152.5240 C   0  0  0  0  0  3  0  0  0  0  0  0
  147.0720  137.4150  152.2230 C   0  0  0  0  0  0  0  0  0  0  0  0
  146.3830  136.7260  153.2270 C   0  0  0  0  0  3  0  0  0  0  0  0
  146.2830  137.2580  154.5120 C   0  0  0  0  0  3  0  0  0  0  0  0
  146.8720  138.4900  154.7960 C   0  0  0  0  0  0  0  0  0  0  0  0
  147.4310  141.5800  153.7680 C   0  0  0  0  0  1  0  0  0  0  0  0
  148.1120  140.4030  154.1820 O   0  0  0  0  0  0  0  0  0  0  0  0
  146.7760  139.0110  156.0600 O   0  0  0  0  0  0  0  0  0  0  0  0
  146.5310  138.4590  156.7760 H   0  0  0  0  0  0  0  0  0  0  0  0
  143.3570  138.1960  149.8570 C   0  0  0  0  0  0  0  0  0  0  0  0
  142.7040  139.1130  149.3700 O   0  0  0  0  0  0  0  0  0  0  0  0
  142.7090  137.1900  150.7940 C   0  0  0  0  0  2  0  0  0  0  0  0
  142.6540  137.7610  152.2050 C   0  0  0  0  0  2  0  0  0  0  0  0
  141.2630  137.8530  152.7660 C   0  0  0  0  0  0  0  0  0  0  0  0
  140.1650  137.7710  151.9100 C   0  0  0  0  0  3  0  0  0  0  0  0
  138.8690  137.8840  152.4120 C   0  0  0  0  0  3  0  0  0  0  0  0
  138.6570  138.0770  153.7800 C   0  0  0  0  0  0  0  0  0  0  0  0
  139.7420  138.1630  154.6590 C   0  0  0  0  0  0  0  0  0  0  0  0
  141.0400  138.0460  154.1380 C   0  0  0  0  0  3  0  0  0  0  0  0
  137.3650  138.1720  154.2190 O   0  0  0  0  0  0  0  0  0  0  0  0
  136.7830  137.4450  154.1250 H   0  0  0  0  0  0  0  0  0  0  0  0
  139.7300  138.3570  156.0140 O   0  0  0  0  0  0  0  0  0  0  0  0
  140.3970  137.4050  156.8300 C   0  0  0  0  0  1  0  0  0  0  0  0
  1 16  1  0  0  0  0
  2  1  1  0  0  0  0
  2  4  1  0  0  0  0
  3  2  2  0  0  0  0
  4  5  1  0  0  0  0
  5  8  1  0  0  0  0
  6 13  1  0  0  0  0
  6 11  1  0  0  0  0
  7  6  2  0  0  0  0
  8  7  1  0  0  0  0
  8  9  2  0  0  0  0
  9 10  1  0  0  0  0
 10 11  2  0  0  0  0
 11 14  1  0  0  0  0
 12 13  1  0  0  0  0
 14 15  1  0  0  0  0
 16 18  1  0  0  0  0
 17 16  2  0  0  0  0
 18 19  1  0  0  0  0
 19 20  1  0  0  0  0
 20 25  1  0  0  0  0
 21 22  1  0  0  0  0
 21 20  2  0  0  0  0
 22 23  2  0  0  0  0
 23 26  1  0  0  0  0
 23 24  1  0  0  0  0
 24 28  1  0  0  0  0
 25 24  2  0  0  0  0
 27 26  1  0  0  0  0
 28 29  1  0  0  0  0
M  END
>  <MODEL>
2

>  <REMARK>
 VINA RESULT:    -5.508      1.519      6.636
 INTER + INTRA:         -12.307
 INTER:                 -10.788
 INTRA:                  -1.519
 UNBOUND:                -3.258
  Name = CHEMBL318743
  14 active torsions:
  status: ('A' for Active; 'I' for Inactive)
    1  A    between atoms: C_1  and  O_2
    2  A    between atoms: O_2  and  C_3
    3  A    between atoms: C_5  and  C_6
    4  A    between atoms: C_6  and  C_7
    5  A    between atoms: C_7  and  C_8
    6  A    between atoms: C_8  and  C_10
    7  A    between atoms: C_10  and  C_11
    8  A    between atoms: C_11  and  C_13
    9  A    between atoms: C_13  and  C_14
   10  A    between atoms: C_14  and  C_15
   11  A    between atoms: C_18  and  O_19
   12  A    between atoms: C_20  and  O_21
   13  A    between atoms: O_21  and  C_22
   14  A    between atoms: C_26  and  O_27
                            x       y       z     vdW  Elec       q    Type
                         _______ _______ _______ _____ _____    ______ ____

>  <TORSDO>
F 12

>  <SCORE>
-5.508

>  <RMSD_LB>
1.519

>  <RMSD_UB>
6.636

$$$$
CHEMBL318743
 OpenBabel10172500543D

 29 30  0  0  0  0  0  0  0  0999 V2000
  142.4960  139.9360  149.6930 C   0  0  0  0  0  2  0  0  0  0  0  0
  143.8090  140.3530  150.2870 C   0  0  0  0  0  0  0  0  0  0  0  0
  143.8860  140.6970  151.4690 O   0  0  0  0  0  0  0  0  0  0  0  0
  145.0190  140.3360  149.3730 C   0  0  0  0  0  2  0  0  0  0  0  0
  146.0870  139.4200  149.9630 C   0  0  0  0  0  2  0  0  0  0  0  0
  148.4560  140.2080  152.8560 C   0  0  0  0  0  0  0  0  0  0  0  0
  147.5620  139.5320  152.0170 C   0  0  0  0  0  3  0  0  0  0  0  0
  147.0770  140.1350  150.8440 C   0  0  0  0  0  0  0  0  0  0  0  0
  147.5010  141.4270  150.5160 C   0  0  0  0  0  3  0  0  0  0  0  0
  148.3870  142.1140  151.3450 C   0  0  0  0  0  3  0  0  0  0  0  0
  148.8590  141.5030  152.5070 C   0  0  0  0  0  0  0  0  0  0  0  0
  148.2320  138.6470  154.6400 C   0  0  0  0  0  1  0  0  0  0  0  0
  148.9680  139.6920  154.0170 O   0  0  0  0  0  0  0  0  0  0  0  0
  149.7290  142.1800  153.3220 O   0  0  0  0  0  0  0  0  0  0  0  0
  149.4020  142.6710  154.0490 H   0  0  0  0  0  0  0  0  0  0  0  0
  142.5420  138.6600  148.8950 C   0  0  0  0  0  0  0  0  0  0  0  0
  142.4210  138.6360  147.6750 O   0  0  0  0  0  0  0  0  0  0  0  0
  142.7440  137.3770  149.6850 C   0  0  0  0  0  2  0  0  0  0  0  0
  141.3930  136.8250  150.1230 C   0  0  0  0  0  2  0  0  0  0  0  0
  140.8900  137.4110  151.4120 C   0  0  0  0  0  0  0  0  0  0  0  0
  139.5600  137.8200  151.5140 C   0  0  0  0  0  3  0  0  0  0  0  0
  139.0870  138.3930  152.6940 C   0  0  0  0  0  3  0  0  0  0  0  0
  139.9400  138.5580  153.7890 C   0  0  0  0  0  0  0  0  0  0  0  0
  141.2790  138.1560  153.7110 C   0  0  0  0  0  0  0  0  0  0  0  0
  141.7390  137.5810  152.5160 C   0  0  0  0  0  3  0  0  0  0  0  0
  139.4220  139.1170  154.9250 O   0  0  0  0  0  0  0  0  0  0  0  0
  138.7120  139.7250  154.8660 H   0  0  0  0  0  0  0  0  0  0  0  0
  142.2540  138.2460  154.6660 O   0  0  0  0  0  0  0  0  0  0  0  0
  143.2030  139.2970  154.5550 C   0  0  0  0  0  1  0  0  0  0  0  0
  1  2  1  0  0  0  0
  2  3  2  0  0  0  0
  4  5  1  0  0  0  0
  4  2  1  0  0  0  0
  5  8  1  0  0  0  0
  6 13  1  0  0  0  0
  7  6  2  0  0  0  0
  8  7  1  0  0  0  0
  9  8  2  0  0  0  0
  9 10  1  0  0  0  0
 10 11  2  0  0  0  0
 11  6  1  0  0  0  0
 11 14  1  0  0  0  0
 13 12  1  0  0  0  0
 14 15  1  0  0  0  0
 16 18  1  0  0  0  0
 16  1  1  0  0  0  0
 17 16  2  0  0  0  0
 18 19  1  0  0  0  0
 19 20  1  0  0  0  0
 20 21  2  0  0  0  0
 20 25  1  0  0  0  0
 21 22  1  0  0  0  0
 22 23  2  0  0  0  0
 23 26  1  0  0  0  0
 24 23  1  0  0  0  0
 24 28  1  0  0  0  0
 25 24  2  0  0  0  0
 27 26  1  0  0  0  0
 29 28  1  0  0  0  0
M  END
>  <MODEL>
3

>  <REMARK>
 VINA RESULT:    -5.412      1.165      6.953
 INTER + INTRA:         -12.149
 INTER:                 -10.809
 INTRA:                  -1.340
 UNBOUND:                -3.258
  Name = CHEMBL318743
  14 active torsions:
  status: ('A' for Active; 'I' for Inactive)
    1  A    between atoms: C_1  and  O_2
    2  A    between atoms: O_2  and  C_3
    3  A    between atoms: C_5  and  C_6
    4  A    between atoms: C_6  and  C_7
    5  A    between atoms: C_7  and  C_8
    6  A    between atoms: C_8  and  C_10
    7  A    between atoms: C_10  and  C_11
    8  A    between atoms: C_11  and  C_13
    9  A    between atoms: C_13  and  C_14
   10  A    between atoms: C_14  and  C_15
   11  A    between atoms: C_18  and  O_19
   12  A    between atoms: C_20  and  O_21
   13  A    between atoms: O_21  and  C_22
   14  A    between atoms: C_26  and  O_27
                            x       y       z     vdW  Elec       q    Type
                         _______ _______ _______ _____ _____    ______ ____

>  <TORSDO>
F 12

>  <SCORE>
-5.412

>  <RMSD_LB>
1.165

>  <RMSD_UB>
6.953

$$$$
CHEMBL318743
 OpenBabel10172500543D

 29 30  0  0  0  0  0  0  0  0999 V2000
  144.8910  137.9130  149.2220 C   0  0  0  0  0  2  0  0  0  0  0  0
  145.0020  139.3940  149.0070 C   0  0  0  0  0  0  0  0  0  0  0  0
  143.9950  140.0830  148.8270 O   0  0  0  0  0  0  0  0  0  0  0  0
  146.3950  139.9930  149.0180 C   0  0  0  0  0  2  0  0  0  0  0  0
  146.3380  141.4010  149.6020 C   0  0  0  0  0  2  0  0  0  0  0  0
  146.4540  141.2920  153.4190 C   0  0  0  0  0  0  0  0  0  0  0  0
  145.9990  141.1790  152.1010 C   0  0  0  0  0  3  0  0  0  0  0  0
  146.8410  141.4890  151.0180 C   0  0  0  0  0  0  0  0  0  0  0  0
  148.1480  141.9140  151.2710 C   0  0  0  0  0  3  0  0  0  0  0  0
  148.6130  142.0370  152.5810 C   0  0  0  0  0  3  0  0  0  0  0  0
  147.7670  141.7260  153.6450 C   0  0  0  0  0  0  0  0  0  0  0  0
  144.8630  139.8630  154.4660 C   0  0  0  0  0  1  0  0  0  0  0  0
  145.6960  141.0140  154.5260 O   0  0  0  0  0  0  0  0  0  0  0  0
  148.2240  141.8480  154.9310 O   0  0  0  0  0  0  0  0  0  0  0  0
  149.1410  141.7880  155.1090 H   0  0  0  0  0  0  0  0  0  0  0  0
  144.3520  137.5100  150.5690 C   0  0  0  0  0  0  0  0  0  0  0  0
  144.8540  137.8840  151.6240 O   0  0  0  0  0  0  0  0  0  0  0  0
  143.1370  136.5970  150.5630 C   0  0  0  0  0  2  0  0  0  0  0  0
  141.9390  137.3380  149.9820 C   0  0  0  0  0  2  0  0  0  0  0  0
  140.8160  137.5320  150.9630 C   0  0  0  0  0  0  0  0  0  0  0  0
  141.1020  137.8720  152.2850 C   0  0  0  0  0  3  0  0  0  0  0  0
  140.0720  138.0270  153.2120 C   0  0  0  0  0  3  0  0  0  0  0  0
  138.7410  137.8450  152.8250 C   0  0  0  0  0  0  0  0  0  0  0  0
  138.4290  137.5020  151.5050 C   0  0  0  0  0  0  0  0  0  0  0  0
  139.4770  137.3520  150.5830 C   0  0  0  0  0  3  0  0  0  0  0  0
  137.7710  138.0180  153.7730 O   0  0  0  0  0  0  0  0  0  0  0  0
  137.6870  138.8400  154.2140 H   0  0  0  0  0  0  0  0  0  0  0  0
  137.1980  137.2770  150.9490 O   0  0  0  0  0  0  0  0  0  0  0  0
  136.8760  135.9500  150.5580 C   0  0  0  0  0  1  0  0  0  0  0  0
  1 16  1  0  0  0  0
  2  4  1  0  0  0  0
  2  1  1  0  0  0  0
  3  2  2  0  0  0  0
  4  5  1  0  0  0  0
  5  8  1  0  0  0  0
  6 11  1  0  0  0  0
  6 13  1  0  0  0  0
  7  6  2  0  0  0  0
  8  9  2  0  0  0  0
  8  7  1  0  0  0  0
  9 10  1  0  0  0  0
 10 11  2  0  0  0  0
 11 14  1  0  0  0  0
 12 13  1  0  0  0  0
 14 15  1  0  0  0  0
 16 17  2  0  0  0  0
 18 16  1  0  0  0  0
 19 18  1  0  0  0  0
 19 20  1  0  0  0  0
 20 21  1  0  0  0  0
 21 22  2  0  0  0  0
 23 22  1  0  0  0  0
 23 26  1  0  0  0  0
 24 23  2  0  0  0  0
 25 20  2  0  0  0  0
 25 24  1  0  0  0  0
 26 27  1  0  0  0  0
 28 24  1  0  0  0  0
 29 28  1  0  0  0  0
M  END
>  <MODEL>
4

>  <REMARK>
 VINA RESULT:    -5.309      1.795      7.469
 INTER + INTRA:         -11.981
 INTER:                 -10.762
 INTRA:                  -1.218
 UNBOUND:                -3.258
  Name = CHEMBL318743
  14 active torsions:
  status: ('A' for Active; 'I' for Inactive)
    1  A    between atoms: C_1  and  O_2
    2  A    between atoms: O_2  and  C_3
    3  A    between atoms: C_5  and  C_6
    4  A    between atoms: C_6  and  C_7
    5  A    between atoms: C_7  and  C_8
    6  A    between atoms: C_8  and  C_10
    7  A    between atoms: C_10  and  C_11
    8  A    between atoms: C_11  and  C_13
    9  A    between atoms: C_13  and  C_14
   10  A    between atoms: C_14  and  C_15
   11  A    between atoms: C_18  and  O_19
   12  A    between atoms: C_20  and  O_21
   13  A    between atoms: O_21  and  C_22
   14  A    between atoms: C_26  and  O_27
                            x       y       z     vdW  Elec       q    Type
                         _______ _______ _______ _____ _____    ______ ____

>  <TORSDO>
F 12

>  <SCORE>
-5.309

>  <RMSD_LB>
1.795

>  <RMSD_UB>
7.469

$$$$
CHEMBL318743
 OpenBabel10172500543D

 29 30  0  0  0  0  0  0  0  0999 V2000
  144.6700  137.8190  148.4240 C   0  0  0  0  0  2  0  0  0  0  0  0
  144.5600  139.3030  148.6150 C   0  0  0  0  0  0  0  0  0  0  0  0
  144.1370  140.0260  147.7110 O   0  0  0  0  0  0  0  0  0  0  0  0
  144.9940  139.8620  149.9560 C   0  0  0  0  0  2  0  0  0  0  0  0
  146.3940  140.4550  149.8300 C   0  0  0  0  0  2  0  0  0  0  0  0
  147.5520  139.8300  153.4170 C   0  0  0  0  0  0  0  0  0  0  0  0
  146.9170  139.6720  152.1790 C   0  0  0  0  0  3  0  0  0  0  0  0
  147.1070  140.6070  151.1460 C   0  0  0  0  0  0  0  0  0  0  0  0
  147.9460  141.7040  151.3670 C   0  0  0  0  0  3  0  0  0  0  0  0
  148.5810  141.8760  152.5960 C   0  0  0  0  0  3  0  0  0  0  0  0
  148.3820  140.9410  153.6120 C   0  0  0  0  0  0  0  0  0  0  0  0
  146.1290  138.8890  155.0770 C   0  0  0  0  0  1  0  0  0  0  0  0
  147.4140  138.9680  154.4730 O   0  0  0  0  0  0  0  0  0  0  0  0
  149.0050  141.1120  154.8200 O   0  0  0  0  0  0  0  0  0  0  0  0
  149.4560  141.9120  155.0060 H   0  0  0  0  0  0  0  0  0  0  0  0
  143.4660  137.1740  147.7900 C   0  0  0  0  0  0  0  0  0  0  0  0
  143.3810  136.9690  146.5840 O   0  0  0  0  0  0  0  0  0  0  0  0
  142.3360  136.7860  148.7290 C   0  0  0  0  0  2  0  0  0  0  0  0
  142.9100  136.3210  150.0620 C   0  0  0  0  0  2  0  0  0  0  0  0
  142.4660  137.1510  151.2340 C   0  0  0  0  0  0  0  0  0  0  0  0
  143.3690  137.4430  152.2560 C   0  0  0  0  0  3  0  0  0  0  0  0
  142.9630  138.1870  153.3640 C   0  0  0  0  0  3  0  0  0  0  0  0
  141.6470  138.6520  153.4580 C   0  0  0  0  0  0  0  0  0  0  0  0
  140.7240  138.3700  152.4450 C   0  0  0  0  0  0  0  0  0  0  0  0
  141.1480  137.6210  151.3370 C   0  0  0  0  0  3  0  0  0  0  0  0
  141.3060  139.3840  154.5610 O   0  0  0  0  0  0  0  0  0  0  0  0
  140.7750  139.0030  155.2310 H   0  0  0  0  0  0  0  0  0  0  0  0
  139.4050  138.7290  152.3690 O   0  0  0  0  0  0  0  0  0  0  0  0
  138.4290  137.7640  152.7330 C   0  0  0  0  0  1  0  0  0  0  0  0
  1  2  1  0  0  0  0
  2  4  1  0  0  0  0
  3  2  2  0  0  0  0
  5  4  1  0  0  0  0
  5  8  1  0  0  0  0
  6 11  1  0  0  0  0
  6 13  1  0  0  0  0
  7  6  2  0  0  0  0
  8  9  2  0  0  0  0
  8  7  1  0  0  0  0
  9 10  1  0  0  0  0
 10 11  2  0  0  0  0
 11 14  1  0  0  0  0
 13 12  1  0  0  0  0
 14 15  1  0  0  0  0
 16  1  1  0  0  0  0
 16 18  1  0  0  0  0
 17 16  2  0  0  0  0
 18 19  1  0  0  0  0
 19 20  1  0  0  0  0
 20 25  2  0  0  0  0
 20 21  1  0  0  0  0
 21 22  2  0  0  0  0
 22 23  1  0  0  0  0
 23 26  1  0  0  0  0
 24 23  2  0  0  0  0
 25 24  1  0  0  0  0
 26 27  1  0  0  0  0
 28 24  1  0  0  0  0
 28 29  1  0  0  0  0
M  END
>  <MODEL>
5

>  <REMARK>
 VINA RESULT:    -5.192      1.380      6.595
 INTER + INTRA:         -11.789
 INTER:                 -10.118
 INTRA:                  -1.670
 UNBOUND:                -3.258
  Name = CHEMBL318743
  14 active torsions:
  status: ('A' for Active; 'I' for Inactive)
    1  A    between atoms: C_1  and  O_2
    2  A    between atoms: O_2  and  C_3
    3  A    between atoms: C_5  and  C_6
    4  A    between atoms: C_6  and  C_7
    5  A    between atoms: C_7  and  C_8
    6  A    between atoms: C_8  and  C_10
    7  A    between atoms: C_10  and  C_11
    8  A    between atoms: C_11  and  C_13
    9  A    between atoms: C_13  and  C_14
   10  A    between atoms: C_14  and  C_15
   11  A    between atoms: C_18  and  O_19
   12  A    between atoms: C_20  and  O_21
   13  A    between atoms: O_21  and  C_22
   14  A    between atoms: C_26  and  O_27
                            x       y       z     vdW  Elec       q    Type
                         _______ _______ _______ _____ _____    ______ ____

>  <TORSDO>
F 12

>  <SCORE>
-5.192

>  <RMSD_LB>
1.380

>  <RMSD_UB>
6.595

$$$$
CHEMBL318743
 OpenBabel10172500543D

 29 30  0  0  0  0  0  0  0  0999 V2000
  144.6920  137.9820  147.9130 C   0  0  0  0  0  2  0  0  0  0  0  0
  144.6270  136.5280  147.5470 C   0  0  0  0  0  0  0  0  0  0  0  0
  145.6340  135.9260  147.1690 O   0  0  0  0  0  0  0  0  0  0  0  0
  143.2770  135.8450  147.6610 C   0  0  0  0  0  2  0  0  0  0  0  0
  142.9770  135.5550  149.1280 C   0  0  0  0  0  2  0  0  0  0  0  0
  140.9540  137.9060  151.3600 C   0  0  0  0  0  0  0  0  0  0  0  0
  142.0190  137.1750  150.8210 C   0  0  0  0  0  3  0  0  0  0  0  0
  141.8390  136.3690  149.6840 C   0  0  0  0  0  0  0  0  0  0  0  0
  140.5750  136.3040  149.0880 C   0  0  0  0  0  3  0  0  0  0  0  0
  139.5040  137.0230  149.6170 C   0  0  0  0  0  3  0  0  0  0  0  0
  139.6970  137.8180  150.7460 C   0  0  0  0  0  0  0  0  0  0  0  0
  141.3240  138.0690  153.7060 C   0  0  0  0  0  1  0  0  0  0  0  0
  141.0470  138.7090  152.4670 O   0  0  0  0  0  0  0  0  0  0  0  0
  138.6430  138.5230  151.2670 O   0  0  0  0  0  0  0  0  0  0  0  0
  137.7650  138.2680  151.0640 H   0  0  0  0  0  0  0  0  0  0  0  0
  145.5540  138.2930  149.1070 C   0  0  0  0  0  0  0  0  0  0  0  0
  145.3770  137.7780  150.2060 O   0  0  0  0  0  0  0  0  0  0  0  0
  146.6700  139.3010  148.8890 C   0  0  0  0  0  2  0  0  0  0  0  0
  146.2030  140.6880  149.3120 C   0  0  0  0  0  2  0  0  0  0  0  0
  146.5060  141.0160  150.7470 C   0  0  0  0  0  0  0  0  0  0  0  0
  145.8120  142.0450  151.3840 C   0  0  0  0  0  3  0  0  0  0  0  0
  146.1030  142.3800  152.7050 C   0  0  0  0  0  3  0  0  0  0  0  0
  147.0910  141.6840  153.4080 C   0  0  0  0  0  0  0  0  0  0  0  0
  147.8010  140.6490  152.7910 C   0  0  0  0  0  0  0  0  0  0  0  0
  147.4950  140.3230  151.4600 C   0  0  0  0  0  3  0  0  0  0  0  0
  147.3290  142.0480  154.7050 O   0  0  0  0  0  0  0  0  0  0  0  0
  147.3010  142.9510  154.9510 H   0  0  0  0  0  0  0  0  0  0  0  0
  148.7990  139.8690  153.3110 O   0  0  0  0  0  0  0  0  0  0  0  0
  148.4280  138.7110  154.0430 C   0  0  0  0  0  1  0  0  0  0  0  0
  1 16  1  0  0  0  0
  2  4  1  0  0  0  0
  2  1  1  0  0  0  0
  3  2  2  0  0  0  0
  4  5  1  0  0  0  0
  5  8  1  0  0  0  0
  6 13  1  0  0  0  0
  7  6  1  0  0  0  0
  8  7  2  0  0  0  0
  9 10  2  0  0  0  0
  9  8  1  0  0  0  0
 10 11  1  0  0  0  0
 11 14  1  0  0  0  0
 11  6  2  0  0  0  0
 13 12  1  0  0  0  0
 15 14  1  0  0  0  0
 16 17  2  0  0  0  0
 18 16  1  0  0  0  0
 18 19  1  0  0  0  0
 19 20  1  0  0  0  0
 20 21  2  0  0  0  0
 20 25  1  0  0  0  0
 21 22  1  0  0  0  0
 22 23  2  0  0  0  0
 23 26  1  0  0  0  0
 24 28  1  0  0  0  0
 24 23  1  0  0  0  0
 25 24  2  0  0  0  0
 26 27  1  0  0  0  0
 28 29  1  0  0  0  0
M  END
>  <MODEL>
6

>  <REMARK>
 VINA RESULT:    -4.822      1.800      2.409
 INTER + INTRA:         -11.180
 INTER:                  -9.830
 INTRA:                  -1.351
 UNBOUND:                -3.258
  Name = CHEMBL318743
  14 active torsions:
  status: ('A' for Active; 'I' for Inactive)
    1  A    between atoms: C_1  and  O_2
    2  A    between atoms: O_2  and  C_3
    3  A    between atoms: C_5  and  C_6
    4  A    between atoms: C_6  and  C_7
    5  A    between atoms: C_7  and  C_8
    6  A    between atoms: C_8  and  C_10
    7  A    between atoms: C_10  and  C_11
    8  A    between atoms: C_11  and  C_13
    9  A    between atoms: C_13  and  C_14
   10  A    between atoms: C_14  and  C_15
   11  A    between atoms: C_18  and  O_19
   12  A    between atoms: C_20  and  O_21
   13  A    between atoms: O_21  and  C_22
   14  A    between atoms: C_26  and  O_27
                            x       y       z     vdW  Elec       q    Type
                         _______ _______ _______ _____ _____    ______ ____

>  <TORSDO>
F 12

>  <SCORE>
-4.822

>  <RMSD_LB>
1.800

>  <RMSD_UB>
2.409

$$$$
CHEMBL318743
 OpenBabel10172500543D

 29 30  0  0  0  0  0  0  0  0999 V2000
  135.8110  134.1840  143.7520 C   0  0  0  0  0  2  0  0  0  0  0  0
  136.3710  135.0560  142.6670 C   0  0  0  0  0  0  0  0  0  0  0  0
  136.7970  134.5650  141.6190 O   0  0  0  0  0  0  0  0  0  0  0  0
  136.3900  136.5510  142.9200 C   0  0  0  0  0  2  0  0  0  0  0  0
  134.9590  137.0590  143.0700 C   0  0  0  0  0  2  0  0  0  0  0  0
  135.0220  137.5930  146.8530 C   0  0  0  0  0  0  0  0  0  0  0  0
  135.4300  137.5060  145.5170 C   0  0  0  0  0  3  0  0  0  0  0  0
  134.5110  137.1870  144.5010 C   0  0  0  0  0  0  0  0  0  0  0  0
  133.1740  136.9590  144.8400 C   0  0  0  0  0  3  0  0  0  0  0  0
  132.7550  137.0370  146.1680 C   0  0  0  0  0  3  0  0  0  0  0  0
  133.6770  137.3530  147.1650 C   0  0  0  0  0  0  0  0  0  0  0  0
  137.2530  137.7720  147.6650 C   0  0  0  0  0  1  0  0  0  0  0  0
  135.8560  137.8920  147.8990 O   0  0  0  0  0  0  0  0  0  0  0  0
  133.2650  137.4280  148.4690 O   0  0  0  0  0  0  0  0  0  0  0  0
  132.3870  137.1940  148.6970 H   0  0  0  0  0  0  0  0  0  0  0  0
  136.8430  133.5370  144.6360 C   0  0  0  0  0  0  0  0  0  0  0  0
  137.2810  132.4100  144.4310 O   0  0  0  0  0  0  0  0  0  0  0  0
  137.3240  134.3560  145.8230 C   0  0  0  0  0  2  0  0  0  0  0  0
  137.3260  133.4930  147.0780 C   0  0  0  0  0  2  0  0  0  0  0  0
  136.0410  133.5530  147.8550 C   0  0  0  0  0  0  0  0  0  0  0  0
  134.9940  132.6890  147.5320 C   0  0  0  0  0  3  0  0  0  0  0  0
  133.7860  132.7540  148.2240 C   0  0  0  0  0  3  0  0  0  0  0  0
  133.6120  133.6830  149.2540 C   0  0  0  0  0  0  0  0  0  0  0  0
  134.6470  134.5620  149.5960 C   0  0  0  0  0  0  0  0  0  0  0  0
  135.8570  134.4830  148.8900 C   0  0  0  0  0  3  0  0  0  0  0  0
  132.4100  133.6970  149.9060 O   0  0  0  0  0  0  0  0  0  0  0  0
  131.7970  133.0020  149.7740 H   0  0  0  0  0  0  0  0  0  0  0  0
  134.6570  135.5350  150.5590 O   0  0  0  0  0  0  0  0  0  0  0  0
  135.9050  136.1150  150.9080 C   0  0  0  0  0  1  0  0  0  0  0  0
  1 16  1  0  0  0  0
  2  4  1  0  0  0  0
  2  1  1  0  0  0  0
  3  2  2  0  0  0  0
  4  5  1  0  0  0  0
  5  8  1  0  0  0  0
  6 11  1  0  0  0  0
  6 13  1  0  0  0  0
  7  6  2  0  0  0  0
  8  9  2  0  0  0  0
  8  7  1  0  0  0  0
  9 10  1  0  0  0  0
 10 11  2  0  0  0  0
 11 14  1  0  0  0  0
 12 13  1  0  0  0  0
 14 15  1  0  0  0  0
 16 18  1  0  0  0  0
 17 16  2  0  0  0  0
 18 19  1  0  0  0  0
 19 20  1  0  0  0  0
 20 25  1  0  0  0  0
 21 20  2  0  0  0  0
 21 22  1  0  0  0  0
 22 23  2  0  0  0  0
 23 24  1  0  0  0  0
 23 26  1  0  0  0  0
 24 28  1  0  0  0  0
 25 24  2  0  0  0  0
 27 26  1  0  0  0  0
 28 29  1  0  0  0  0
M  END
>  <MODEL>
7

>  <REMARK>
 VINA RESULT:    -4.713      9.333     12.131
 INTER + INTRA:         -11.001
 INTER:                  -8.795
 INTRA:                  -2.206
 UNBOUND:                -3.258
  Name = CHEMBL318743
  14 active torsions:
  status: ('A' for Active; 'I' for Inactive)
    1  A    between atoms: C_1  and  O_2
    2  A    between atoms: O_2  and  C_3
    3  A    between atoms: C_5  and  C_6
    4  A    between atoms: C_6  and  C_7
    5  A    between atoms: C_7  and  C_8
    6  A    between atoms: C_8  and  C_10
    7  A    between atoms: C_10  and  C_11
    8  A    between atoms: C_11  and  C_13
    9  A    between atoms: C_13  and  C_14
   10  A    between atoms: C_14  and  C_15
   11  A    between atoms: C_18  and  O_19
   12  A    between atoms: C_20  and  O_21
   13  A    between atoms: O_21  and  C_22
   14  A    between atoms: C_26  and  O_27
                            x       y       z     vdW  Elec       q    Type
                         _______ _______ _______ _____ _____    ______ ____

>  <TORSDO>
F 12

>  <SCORE>
-4.713

>  <RMSD_LB>
9.333

>  <RMSD_UB>
12.131

$$$$
CHEMBL318743
 OpenBabel10172500543D

 29 30  0  0  0  0  0  0  0  0999 V2000
  135.8590  135.3890  143.6030 C   0  0  0  0  0  2  0  0  0  0  0  0
  136.5840  135.5300  142.2970 C   0  0  0  0  0  0  0  0  0  0  0  0
  136.6240  134.5970  141.4930 O   0  0  0  0  0  0  0  0  0  0  0  0
  137.2600  136.8590  142.0200 C   0  0  0  0  0  2  0  0  0  0  0  0
  136.3130  137.7550  141.2270 C   0  0  0  0  0  2  0  0  0  0  0  0
  132.9380  138.9370  142.5720 C   0  0  0  0  0  0  0  0  0  0  0  0
  133.9040  138.2770  141.8050 C   0  0  0  0  0  3  0  0  0  0  0  0
  135.2750  138.4370  142.0760 C   0  0  0  0  0  0  0  0  0  0  0  0
  135.6670  139.2680  143.1300 C   0  0  0  0  0  3  0  0  0  0  0  0
  134.7150  139.9370  143.8990 C   0  0  0  0  0  3  0  0  0  0  0  0
  133.3590  139.7690  143.6180 C   0  0  0  0  0  0  0  0  0  0  0  0
  131.1320  138.8810  141.0210 C   0  0  0  0  0  1  0  0  0  0  0  0
  131.5870  138.8370  142.3680 O   0  0  0  0  0  0  0  0  0  0  0  0
  132.4250  140.4270  144.3730 O   0  0  0  0  0  0  0  0  0  0  0  0
  131.5290  140.1530  144.3520 H   0  0  0  0  0  0  0  0  0  0  0  0
  136.5380  134.4980  144.6080 C   0  0  0  0  0  0  0  0  0  0  0  0
  136.7130  133.2990  144.4210 O   0  0  0  0  0  0  0  0  0  0  0  0
  137.0010  135.1620  145.8940 C   0  0  0  0  0  2  0  0  0  0  0  0
  137.0380  134.1360  147.0200 C   0  0  0  0  0  2  0  0  0  0  0  0
  135.7180  133.9550  147.7160 C   0  0  0  0  0  0  0  0  0  0  0  0
  135.2010  132.6720  147.8960 C   0  0  0  0  0  3  0  0  0  0  0  0
  133.9640  132.4910  148.5140 C   0  0  0  0  0  3  0  0  0  0  0  0
  133.2320  133.5940  148.9640 C   0  0  0  0  0  0  0  0  0  0  0  0
  133.7300  134.8900  148.7930 C   0  0  0  0  0  0  0  0  0  0  0  0
  134.9770  135.0560  148.1710 C   0  0  0  0  0  3  0  0  0  0  0  0
  132.0290  133.3580  149.5710 O   0  0  0  0  0  0  0  0  0  0  0  0
  131.7920  132.4870  149.8190 H   0  0  0  0  0  0  0  0  0  0  0  0
  133.1560  136.0790  149.1560 O   0  0  0  0  0  0  0  0  0  0  0  0
  133.0040  137.0790  148.1590 C   0  0  0  0  0  1  0  0  0  0  0  0
  1 16  1  0  0  0  0
  2  1  1  0  0  0  0
  3  2  2  0  0  0  0
  4  2  1  0  0  0  0
  5  4  1  0  0  0  0
  5  8  1  0  0  0  0
  6 11  1  0  0  0  0
  7  8  1  0  0  0  0
  7  6  2  0  0  0  0
  8  9  2  0  0  0  0
  9 10  1  0  0  0  0
 11 10  2  0  0  0  0
 11 14  1  0  0  0  0
 12 13  1  0  0  0  0
 13  6  1  0  0  0  0
 15 14  1  0  0  0  0
 16 18  1  0  0  0  0
 17 16  2  0  0  0  0
 18 19  1  0  0  0  0
 19 20  1  0  0  0  0
 20 21  2  0  0  0  0
 20 25  1  0  0  0  0
 21 22  1  0  0  0  0
 22 23  2  0  0  0  0
 23 26  1  0  0  0  0
 24 23  1  0  0  0  0
 24 28  1  0  0  0  0
 25 24  2  0  0  0  0
 26 27  1  0  0  0  0
 29 28  1  0  0  0  0
M  END
>  <MODEL>
8

>  <REMARK>
 VINA RESULT:    -3.807     11.126     13.643
 INTER + INTRA:          -9.513
 INTER:                  -8.263
 INTRA:                  -1.250
 UNBOUND:                -3.258
  Name = CHEMBL318743
  14 active torsions:
  status: ('A' for Active; 'I' for Inactive)
    1  A    between atoms: C_1  and  O_2
    2  A    between atoms: O_2  and  C_3
    3  A    between atoms: C_5  and  C_6
    4  A    between atoms: C_6  and  C_7
    5  A    between atoms: C_7  and  C_8
    6  A    between atoms: C_8  and  C_10
    7  A    between atoms: C_10  and  C_11
    8  A    between atoms: C_11  and  C_13
    9  A    between atoms: C_13  and  C_14
   10  A    between atoms: C_14  and  C_15
   11  A    between atoms: C_18  and  O_19
   12  A    between atoms: C_20  and  O_21
   13  A    between atoms: O_21  and  C_22
   14  A    between atoms: C_26  and  O_27
                            x       y       z     vdW  Elec       q    Type
                         _______ _______ _______ _____ _____    ______ ____

>  <TORSDO>
F 12

>  <SCORE>
-3.807

>  <RMSD_LB>
11.126

>  <RMSD_UB>
13.643

$$$$
CHEMBL318743
 OpenBabel10172500543D

 29 30  0  0  0  0  0  0  0  0999 V2000
  124.9520  151.2050  148.8780 C   0  0  0  0  0  2  0  0  0  0  0  0
  123.6380  151.0410  149.5830 C   0  0  0  0  0  0  0  0  0  0  0  0
  122.5850  151.3920  149.0460 O   0  0  0  0  0  0  0  0  0  0  0  0
  123.6680  150.4340  150.9730 C   0  0  0  0  0  2  0  0  0  0  0  0
  124.1800  151.4700  151.9680 C   0  0  0  0  0  2  0  0  0  0  0  0
  125.7500  151.1330  155.4350 C   0  0  0  0  0  0  0  0  0  0  0  0
  125.2440  151.6890  154.2540 C   0  0  0  0  0  3  0  0  0  0  0  0
  124.6890  150.8730  153.2530 C   0  0  0  0  0  0  0  0  0  0  0  0
  124.6430  149.4900  153.4490 C   0  0  0  0  0  3  0  0  0  0  0  0
  125.1480  148.9220  154.6180 C   0  0  0  0  0  3  0  0  0  0  0  0
  125.6970  149.7430  155.6030 C   0  0  0  0  0  0  0  0  0  0  0  0
  126.2740  153.2740  156.3340 C   0  0  0  0  0  1  0  0  0  0  0  0
  126.3110  151.8580  156.4540 O   0  0  0  0  0  0  0  0  0  0  0  0
  126.1940  149.1840  156.7510 O   0  0  0  0  0  0  0  0  0  0  0  0
  125.7250  148.4940  157.1770 H   0  0  0  0  0  0  0  0  0  0  0  0
  125.7400  149.9340  148.7090 C   0  0  0  0  0  0  0  0  0  0  0  0
  125.2650  148.9200  148.2070 O   0  0  0  0  0  0  0  0  0  0  0  0
  127.1770  149.9600  149.2040 C   0  0  0  0  0  2  0  0  0  0  0  0
  127.2520  149.3520  150.5990 C   0  0  0  0  0  2  0  0  0  0  0  0
  127.8480  150.2720  151.6280 C   0  0  0  0  0  0  0  0  0  0  0  0
  128.3340  149.7480  152.8260 C   0  0  0  0  0  3  0  0  0  0  0  0
  128.8630  150.5920  153.8010 C   0  0  0  0  0  3  0  0  0  0  0  0
  128.9160  151.9730  153.5860 C   0  0  0  0  0  0  0  0  0  0  0  0
  128.4340  152.5210  152.3930 C   0  0  0  0  0  0  0  0  0  0  0  0
  127.9050  151.6580  151.4210 C   0  0  0  0  0  3  0  0  0  0  0  0
  129.4530  152.7530  154.5730 O   0  0  0  0  0  0  0  0  0  0  0  0
  129.8210  152.3550  155.3360 H   0  0  0  0  0  0  0  0  0  0  0  0
  128.3940  153.8360  152.0130 O   0  0  0  0  0  0  0  0  0  0  0  0
  127.1900  154.5570  152.2290 C   0  0  0  0  0  1  0  0  0  0  0  0
  1  2  1  0  0  0  0
  2  4  1  0  0  0  0
  3  2  2  0  0  0  0
  4  5  1  0  0  0  0
  5  8  1  0  0  0  0
  6 11  1  0  0  0  0
  6 13  1  0  0  0  0
  7  6  2  0  0  0  0
  8  9  2  0  0  0  0
  8  7  1  0  0  0  0
  9 10  1  0  0  0  0
 10 11  2  0  0  0  0
 11 14  1  0  0  0  0
 12 13  1  0  0  0  0
 14 15  1  0  0  0  0
 16  1  1  0  0  0  0
 16 18  1  0  0  0  0
 17 16  2  0  0  0  0
 18 19  1  0  0  0  0
 19 20  1  0  0  0  0
 20 21  1  0  0  0  0
 21 22  2  0  0  0  0
 23 22  1  0  0  0  0
 23 26  1  0  0  0  0
 24 23  2  0  0  0  0
 25 20  2  0  0  0  0
 25 24  1  0  0  0  0
 26 27  1  0  0  0  0
 28 29  1  0  0  0  0
 28 24  1  0  0  0  0
M  END
>  <MODEL>
9

>  <REMARK>
 VINA RESULT:    -3.699     19.649     21.708
 INTER + INTRA:          -9.335
 INTER:                  -6.077
 INTRA:                  -3.258
 UNBOUND:                -3.258
  Name = CHEMBL318743
  14 active torsions:
  status: ('A' for Active; 'I' for Inactive)
    1  A    between atoms: C_1  and  O_2
    2  A    between atoms: O_2  and  C_3
    3  A    between atoms: C_5  and  C_6
    4  A    between atoms: C_6  and  C_7
    5  A    between atoms: C_7  and  C_8
    6  A    between atoms: C_8  and  C_10
    7  A    between atoms: C_10  and  C_11
    8  A    between atoms: C_11  and  C_13
    9  A    between atoms: C_13  and  C_14
   10  A    between atoms: C_14  and  C_15
   11  A    between atoms: C_18  and  O_19
   12  A    between atoms: C_20  and  O_21
   13  A    between atoms: O_21  and  C_22
   14  A    between atoms: C_26  and  O_27
                            x       y       z     vdW  Elec       q    Type
                         _______ _______ _______ _____ _____    ______ ____

>  <TORSDO>
F 12

>  <SCORE>
-3.699

>  <RMSD_LB>
19.649

>  <RMSD_UB>
21.708

$$$$
