CHEMBL4517271
 OpenBabel10172500303D

 21 21  0  0  0  0  0  0  0  0999 V2000
  138.6900  138.0490  154.2630 C   0  0  0  0  0  0  0  0  0  0  0  0
  138.1400  137.6970  153.0090 C   0  0  0  0  0  3  0  0  0  0  0  0
  138.9270  137.6260  151.8520 C   0  0  0  0  0  0  0  0  0  0  0  0
  140.2970  137.8710  151.9650 C   0  0  0  0  0  3  0  0  0  0  0  0
  140.8560  138.1960  153.2050 C   0  0  0  0  0  3  0  0  0  0  0  0
  140.0690  138.2810  154.3660 C   0  0  0  0  0  0  0  0  0  0  0  0
  137.7320  138.3120  155.3670 C   0  0  0  0  0  0  0  0  0  0  0  0
  136.9710  139.2630  155.4190 O   0  0  0  0  0  0  0  0  0  0  0  0
  137.9410  137.7620  157.6380 C   0  0  0  0  0  1  0  0  0  0  0  0
  137.8110  137.3150  156.2860 O   0  0  0  0  0  0  0  0  0  0  0  0
  140.7880  138.6700  155.4640 O   0  0  0  0  0  0  0  0  0  0  0  0
  142.0440  139.3040  155.2420 C   0  0  0  0  0  1  0  0  0  0  0  0
  138.2960  137.3350  150.5150 C   0  0  0  0  0  2  0  0  0  0  0  0
  137.0220  136.6710  150.6480 N   0  0  0  0  0  0  0  0  0  0  0  0
  136.8570  135.3920  150.1650 C   0  0  0  0  0  0  0  0  0  0  0  0
  137.7300  134.7930  149.5470 O   0  0  0  0  0  0  0  0  0  0  0  0
  136.2700  137.1320  151.0850 H   0  0  0  0  0  0  0  0  0  0  0  0
  135.4760  134.8120  150.4290 C   0  0  0  0  0  2  0  0  0  0  0  0
  134.9390  135.1440  151.8310 C   0  0  0  0  0  3  0  0  0  0  0  0
  133.4230  134.9400  151.9180 C   0  0  0  0  0  1  0  0  0  0  0  0
  135.6320  134.2660  152.8770 C   0  0  0  0  0  1  0  0  0  0  0  0
  1  6  1  0  0  0  0
  1  7  1  0  0  0  0
  2  1  2  0  0  0  0
  3  4  2  0  0  0  0
  3  2  1  0  0  0  0
  4  5  1  0  0  0  0
  5  6  2  0  0  0  0
  6 11  1  0  0  0  0
  7  8  2  0  0  0  0
  7 10  1  0  0  0  0
 10  9  1  0  0  0  0
 12 11  1  0  0  0  0
 13 14  1  0  0  0  0
 13  3  1  0  0  0  0
 14 17  1  0  0  0  0
 15 18  1  0  0  0  0
 15 14  1  0  0  0  0
 16 15  2  0  0  0  0
 18 19  1  0  0  0  0
 19 20  1  0  0  0  0
 19 21  1  0  0  0  0
M  END
>  <MODEL>
1

>  <REMARK>
 VINA RESULT:    -6.326      0.000      0.000
 INTER + INTRA:          -9.462
 INTER:                  -8.618
 INTRA:                  -0.844
 UNBOUND:                -0.548
  Name = CHEMBL4517271
  11 active torsions:
  status: ('A' for Active; 'I' for Inactive)
    1  A    between atoms: C_1  and  O_2
    2  A    between atoms: O_2  and  C_3
    3  A    between atoms: C_3  and  C_5
    4  A    between atoms: C_7  and  C_8
    5  A    between atoms: C_8  and  N_9
    6  A    between atoms: C_10  and  C_12
    7  A    between atoms: C_12  and  C_13
    8  A    between atoms: C_13  and  C_14
    9  A    between atoms: C_13  and  C_15
   10  A    between atoms: C_18  and  O_19
   11  A    between atoms: O_19  and  C_20
                            x       y       z     vdW  Elec       q    Type
                         _______ _______ _______ _____ _____    ______ ____

>  <TORSDO>
F 7

>  <SCORE>
-6.326

>  <RMSD_LB>
0.000

>  <RMSD_UB>
0.000

$$$$
CHEMBL4517271
 OpenBabel10172500303D

 21 21  0  0  0  0  0  0  0  0999 V2000
  140.9580  138.6040  153.6600 C   0  0  0  0  0  0  0  0  0  0  0  0
  142.2520  138.8920  154.1510 C   0  0  0  0  0  3  0  0  0  0  0  0
  143.4050  138.3980  153.5250 C   0  0  0  0  0  0  0  0  0  0  0  0
  143.2560  137.6400  152.3630 C   0  0  0  0  0  3  0  0  0  0  0  0
  141.9810  137.3690  151.8550 C   0  0  0  0  0  3  0  0  0  0  0  0
  140.8220  137.8510  152.4860 C   0  0  0  0  0  0  0  0  0  0  0  0
  139.8120  138.9870  154.5240 C   0  0  0  0  0  0  0  0  0  0  0  0
  138.8290  139.6020  154.1470 O   0  0  0  0  0  0  0  0  0  0  0  0
  138.9280  137.7420  156.3060 C   0  0  0  0  0  1  0  0  0  0  0  0
  140.0110  138.5160  155.7820 O   0  0  0  0  0  0  0  0  0  0  0  0
  139.6730  137.4290  151.8720 O   0  0  0  0  0  0  0  0  0  0  0  0
  139.6960  137.2750  150.4570 C   0  0  0  0  0  1  0  0  0  0  0  0
  144.7650  138.6490  154.1230 C   0  0  0  0  0  2  0  0  0  0  0  0
  145.2870  139.9450  153.7640 N   0  0  0  0  0  0  0  0  0  0  0  0
  146.1020  140.0810  152.6620 C   0  0  0  0  0  0  0  0  0  0  0  0
  146.4800  139.1290  151.9900 O   0  0  0  0  0  0  0  0  0  0  0  0
  145.0600  140.7340  154.3080 H   0  0  0  0  0  0  0  0  0  0  0  0
  146.5250  141.5150  152.3880 C   0  0  0  0  0  2  0  0  0  0  0  0
  147.4190  141.6570  151.1460 C   0  0  0  0  0  3  0  0  0  0  0  0
  146.7990  142.5970  150.1080 C   0  0  0  0  0  1  0  0  0  0  0  0
  148.7980  142.1840  151.5520 C   0  0  0  0  0  1  0  0  0  0  0  0
  1  2  1  0  0  0  0
  1  7  1  0  0  0  0
  3 13  1  0  0  0  0
  3  2  2  0  0  0  0
  4  3  1  0  0  0  0
  5  4  2  0  0  0  0
  5  6  1  0  0  0  0
  6  1  2  0  0  0  0
  7 10  1  0  0  0  0
  8  7  2  0  0  0  0
 10  9  1  0  0  0  0
 11  6  1  0  0  0  0
 12 11  1  0  0  0  0
 14 13  1  0  0  0  0
 14 17  1  0  0  0  0
 15 14  1  0  0  0  0
 16 15  2  0  0  0  0
 18 15  1  0  0  0  0
 19 21  1  0  0  0  0
 19 18  1  0  0  0  0
 20 19  1  0  0  0  0
M  END
>  <MODEL>
2

>  <REMARK>
 VINA RESULT:    -6.258      4.596      8.193
 INTER + INTRA:          -9.366
 INTER:                  -8.764
 INTRA:                  -0.602
 UNBOUND:                -0.548
  Name = CHEMBL4517271
  11 active torsions:
  status: ('A' for Active; 'I' for Inactive)
    1  A    between atoms: C_1  and  O_2
    2  A    between atoms: O_2  and  C_3
    3  A    between atoms: C_3  and  C_5
    4  A    between atoms: C_7  and  C_8
    5  A    between atoms: C_8  and  N_9
    6  A    between atoms: C_10  and  C_12
    7  A    between atoms: C_12  and  C_13
    8  A    between atoms: C_13  and  C_14
    9  A    between atoms: C_13  and  C_15
   10  A    between atoms: C_18  and  O_19
   11  A    between atoms: O_19  and  C_20
                            x       y       z     vdW  Elec       q    Type
                         _______ _______ _______ _____ _____    ______ ____

>  <TORSDO>
F 7

>  <SCORE>
-6.258

>  <RMSD_LB>
4.596

>  <RMSD_UB>
8.193

$$$$
CHEMBL4517271
 OpenBabel10172500303D

 21 21  0  0  0  0  0  0  0  0999 V2000
  134.1630  134.5680  147.5410 C   0  0  0  0  0  0  0  0  0  0  0  0
  133.6580  135.0840  148.7570 C   0  0  0  0  0  3  0  0  0  0  0  0
  133.4110  134.2590  149.8620 C   0  0  0  0  0  0  0  0  0  0  0  0
  133.7170  132.9010  149.7580 C   0  0  0  0  0  3  0  0  0  0  0  0
  134.2400  132.3840  148.5690 C   0  0  0  0  0  3  0  0  0  0  0  0
  134.4780  133.2050  147.4530 C   0  0  0  0  0  0  0  0  0  0  0  0
  134.1730  135.4860  146.3740 C   0  0  0  0  0  0  0  0  0  0  0  0
  134.2760  135.1350  145.2100 O   0  0  0  0  0  0  0  0  0  0  0  0
  135.0450  137.6650  146.3810 C   0  0  0  0  0  1  0  0  0  0  0  0
  134.0130  136.7670  146.7990 O   0  0  0  0  0  0  0  0  0  0  0  0
  134.9320  132.5030  146.3690 O   0  0  0  0  0  0  0  0  0  0  0  0
  136.3400  132.3450  146.2250 C   0  0  0  0  0  1  0  0  0  0  0  0
  132.7900  134.8240  151.1130 C   0  0  0  0  0  2  0  0  0  0  0  0
  133.3580  134.2520  152.3090 N   0  0  0  0  0  0  0  0  0  0  0  0
  134.1520  135.0200  153.1320 C   0  0  0  0  0  0  0  0  0  0  0  0
  134.4720  136.1730  152.8650 O   0  0  0  0  0  0  0  0  0  0  0  0
  133.1790  133.3120  152.5380 H   0  0  0  0  0  0  0  0  0  0  0  0
  134.6290  134.2890  154.3760 C   0  0  0  0  0  2  0  0  0  0  0  0
  134.8400  135.2190  155.5820 C   0  0  0  0  0  3  0  0  0  0  0  0
  134.3670  134.5700  156.8860 C   0  0  0  0  0  1  0  0  0  0  0  0
  136.3210  135.5880  155.7040 C   0  0  0  0  0  1  0  0  0  0  0  0
  1  2  1  0  0  0  0
  2  3  2  0  0  0  0
  3 13  1  0  0  0  0
  4  3  1  0  0  0  0
  5  4  2  0  0  0  0
  6  1  2  0  0  0  0
  6  5  1  0  0  0  0
  7 10  1  0  0  0  0
  7  1  1  0  0  0  0
  8  7  2  0  0  0  0
  9 10  1  0  0  0  0
 11  6  1  0  0  0  0
 12 11  1  0  0  0  0
 13 14  1  0  0  0  0
 14 17  1  0  0  0  0
 14 15  1  0  0  0  0
 15 18  1  0  0  0  0
 16 15  2  0  0  0  0
 18 19  1  0  0  0  0
 19 21  1  0  0  0  0
 19 20  1  0  0  0  0
M  END
>  <MODEL>
3

>  <REMARK>
 VINA RESULT:    -6.216      4.524      8.360
 INTER + INTRA:          -9.307
 INTER:                  -8.915
 INTRA:                  -0.392
 UNBOUND:                -0.548
  Name = CHEMBL4517271
  11 active torsions:
  status: ('A' for Active; 'I' for Inactive)
    1  A    between atoms: C_1  and  O_2
    2  A    between atoms: O_2  and  C_3
    3  A    between atoms: C_3  and  C_5
    4  A    between atoms: C_7  and  C_8
    5  A    between atoms: C_8  and  N_9
    6  A    between atoms: C_10  and  C_12
    7  A    between atoms: C_12  and  C_13
    8  A    between atoms: C_13  and  C_14
    9  A    between atoms: C_13  and  C_15
   10  A    between atoms: C_18  and  O_19
   11  A    between atoms: O_19  and  C_20
                            x       y       z     vdW  Elec       q    Type
                         _______ _______ _______ _____ _____    ______ ____

>  <TORSDO>
F 7

>  <SCORE>
-6.216

>  <RMSD_LB>
4.524

>  <RMSD_UB>
8.360

$$$$
CHEMBL4517271
 OpenBabel10172500303D

 21 21  0  0  0  0  0  0  0  0999 V2000
  137.8290  137.6500  155.4180 C   0  0  0  0  0  0  0  0  0  0  0  0
  137.1160  136.8050  154.5360 C   0  0  0  0  0  3  0  0  0  0  0  0
  136.2090  135.8460  155.0070 C   0  0  0  0  0  0  0  0  0  0  0  0
  135.9820  135.7650  156.3820 C   0  0  0  0  0  3  0  0  0  0  0  0
  136.6630  136.6140  157.2610 C   0  0  0  0  0  3  0  0  0  0  0  0
  137.5830  137.5680  156.7960 C   0  0  0  0  0  0  0  0  0  0  0  0
  138.9210  138.4660  154.8290 C   0  0  0  0  0  0  0  0  0  0  0  0
  138.7850  139.5890  154.3720 O   0  0  0  0  0  0  0  0  0  0  0  0
  141.2120  138.5770  155.3240 C   0  0  0  0  0  1  0  0  0  0  0  0
  140.0940  137.7860  154.9120 O   0  0  0  0  0  0  0  0  0  0  0  0
  138.1890  138.2570  157.8120 O   0  0  0  0  0  0  0  0  0  0  0  0
  137.7660  137.9810  159.1430 C   0  0  0  0  0  1  0  0  0  0  0  0
  135.5330  134.9000  154.0500 C   0  0  0  0  0  2  0  0  0  0  0  0
  135.4830  135.4280  152.7080 N   0  0  0  0  0  0  0  0  0  0  0  0
  134.2920  135.4490  152.0170 C   0  0  0  0  0  0  0  0  0  0  0  0
  133.2550  134.9700  152.4600 O   0  0  0  0  0  0  0  0  0  0  0  0
  136.3030  135.7720  152.2840 H   0  0  0  0  0  0  0  0  0  0  0  0
  134.3960  136.0830  150.6390 C   0  0  0  0  0  2  0  0  0  0  0  0
  133.2320  135.7040  149.7090 C   0  0  0  0  0  3  0  0  0  0  0  0
  132.7780  136.8950  148.8590 C   0  0  0  0  0  1  0  0  0  0  0  0
  133.6510  134.5530  148.7900 C   0  0  0  0  0  1  0  0  0  0  0  0
  1  6  1  0  0  0  0
  2  3  1  0  0  0  0
  2  1  2  0  0  0  0
  3  4  2  0  0  0  0
  4  5  1  0  0  0  0
  6  5  2  0  0  0  0
  6 11  1  0  0  0  0
  7 10  1  0  0  0  0
  7  1  1  0  0  0  0
  8  7  2  0  0  0  0
 10  9  1  0  0  0  0
 11 12  1  0  0  0  0
 13  3  1  0  0  0  0
 14 13  1  0  0  0  0
 15 16  2  0  0  0  0
 15 14  1  0  0  0  0
 17 14  1  0  0  0  0
 18 15  1  0  0  0  0
 19 18  1  0  0  0  0
 20 19  1  0  0  0  0
 21 19  1  0  0  0  0
M  END
>  <MODEL>
4

>  <REMARK>
 VINA RESULT:    -6.044      2.340      3.964
 INTER + INTRA:          -9.065
 INTER:                  -8.500
 INTRA:                  -0.565
 UNBOUND:                -0.548
  Name = CHEMBL4517271
  11 active torsions:
  status: ('A' for Active; 'I' for Inactive)
    1  A    between atoms: C_1  and  O_2
    2  A    between atoms: O_2  and  C_3
    3  A    between atoms: C_3  and  C_5
    4  A    between atoms: C_7  and  C_8
    5  A    between atoms: C_8  and  N_9
    6  A    between atoms: C_10  and  C_12
    7  A    between atoms: C_12  and  C_13
    8  A    between atoms: C_13  and  C_14
    9  A    between atoms: C_13  and  C_15
   10  A    between atoms: C_18  and  O_19
   11  A    between atoms: O_19  and  C_20
                            x       y       z     vdW  Elec       q    Type
                         _______ _______ _______ _____ _____    ______ ____

>  <TORSDO>
F 7

>  <SCORE>
-6.044

>  <RMSD_LB>
2.340

>  <RMSD_UB>
3.964

$$$$
CHEMBL4517271
 OpenBabel10172500303D

 21 21  0  0  0  0  0  0  0  0999 V2000
  141.0260  138.1670  152.6640 C   0  0  0  0  0  0  0  0  0  0  0  0
  142.3880  138.4140  152.9570 C   0  0  0  0  0  3  0  0  0  0  0  0
  142.8050  138.8210  154.2320 C   0  0  0  0  0  0  0  0  0  0  0  0
  141.8460  138.9390  155.2380 C   0  0  0  0  0  3  0  0  0  0  0  0
  140.5000  138.6740  154.9660 C   0  0  0  0  0  3  0  0  0  0  0  0
  140.0730  138.2790  153.6870 C   0  0  0  0  0  0  0  0  0  0  0  0
  140.6730  137.9630  151.2360 C   0  0  0  0  0  0  0  0  0  0  0  0
  140.8180  136.9180  150.6240 O   0  0  0  0  0  0  0  0  0  0  0  0
  140.9550  139.7770  149.7740 C   0  0  0  0  0  1  0  0  0  0  0  0
  140.1340  139.1040  150.7320 O   0  0  0  0  0  0  0  0  0  0  0  0
  138.7150  138.1260  153.6060 O   0  0  0  0  0  0  0  0  0  0  0  0
  137.9590  138.2870  154.8020 C   0  0  0  0  0  1  0  0  0  0  0  0
  144.2500  139.1610  154.4890 C   0  0  0  0  0  2  0  0  0  0  0  0
  144.6400  140.3950  153.8510 N   0  0  0  0  0  0  0  0  0  0  0  0
  145.9700  140.6550  153.6040 C   0  0  0  0  0  0  0  0  0  0  0  0
  146.8740  139.9110  153.9670 O   0  0  0  0  0  0  0  0  0  0  0  0
  143.9550  141.0530  153.5930 H   0  0  0  0  0  0  0  0  0  0  0  0
  146.2110  141.9700  152.8810 C   0  0  0  0  0  2  0  0  0  0  0  0
  146.7790  141.7870  151.4640 C   0  0  0  0  0  3  0  0  0  0  0  0
  146.0490  142.6660  150.4440 C   0  0  0  0  0  1  0  0  0  0  0  0
  148.2730  142.1250  151.4520 C   0  0  0  0  0  1  0  0  0  0  0  0
  1  2  2  0  0  0  0
  1  6  1  0  0  0  0
  2  3  1  0  0  0  0
  3 13  1  0  0  0  0
  3  4  2  0  0  0  0
  5  4  1  0  0  0  0
  6  5  2  0  0  0  0
  7  1  1  0  0  0  0
  8  7  2  0  0  0  0
  9 10  1  0  0  0  0
 10  7  1  0  0  0  0
 11  6  1  0  0  0  0
 11 12  1  0  0  0  0
 14 13  1  0  0  0  0
 15 14  1  0  0  0  0
 15 16  2  0  0  0  0
 17 14  1  0  0  0  0
 18 15  1  0  0  0  0
 19 18  1  0  0  0  0
 20 19  1  0  0  0  0
 21 19  1  0  0  0  0
M  END
>  <MODEL>
5

>  <REMARK>
 VINA RESULT:    -6.018      4.441      8.564
 INTER + INTRA:          -9.029
 INTER:                  -8.467
 INTRA:                  -0.562
 UNBOUND:                -0.548
  Name = CHEMBL4517271
  11 active torsions:
  status: ('A' for Active; 'I' for Inactive)
    1  A    between atoms: C_1  and  O_2
    2  A    between atoms: O_2  and  C_3
    3  A    between atoms: C_3  and  C_5
    4  A    between atoms: C_7  and  C_8
    5  A    between atoms: C_8  and  N_9
    6  A    between atoms: C_10  and  C_12
    7  A    between atoms: C_12  and  C_13
    8  A    between atoms: C_13  and  C_14
    9  A    between atoms: C_13  and  C_15
   10  A    between atoms: C_18  and  O_19
   11  A    between atoms: O_19  and  C_20
                            x       y       z     vdW  Elec       q    Type
                         _______ _______ _______ _____ _____    ______ ____

>  <TORSDO>
F 7

>  <SCORE>
-6.018

>  <RMSD_LB>
4.441

>  <RMSD_UB>
8.564

$$$$
CHEMBL4517271
 OpenBabel10172500303D

 21 21  0  0  0  0  0  0  0  0999 V2000
  136.9560  136.6450  152.1760 C   0  0  0  0  0  0  0  0  0  0  0  0
  135.9100  135.7120  151.9880 C   0  0  0  0  0  3  0  0  0  0  0  0
  135.2590  135.1050  153.0710 C   0  0  0  0  0  0  0  0  0  0  0  0
  135.6360  135.4750  154.3630 C   0  0  0  0  0  3  0  0  0  0  0  0
  136.6520  136.4150  154.5610 C   0  0  0  0  0  3  0  0  0  0  0  0
  137.3170  137.0170  153.4790 C   0  0  0  0  0  0  0  0  0  0  0  0
  137.7200  137.0500  150.9690 C   0  0  0  0  0  0  0  0  0  0  0  0
  138.9350  137.0320  150.8730 O   0  0  0  0  0  0  0  0  0  0  0  0
  137.2850  138.5230  149.1940 C   0  0  0  0  0  1  0  0  0  0  0  0
  136.8570  137.4090  149.9820 O   0  0  0  0  0  0  0  0  0  0  0  0
  138.3180  137.8610  153.8780 O   0  0  0  0  0  0  0  0  0  0  0  0
  138.1790  138.5020  155.1410 C   0  0  0  0  0  1  0  0  0  0  0  0
  134.2100  134.0500  152.8370 C   0  0  0  0  0  2  0  0  0  0  0  0
  134.1090  133.6820  151.4460 N   0  0  0  0  0  0  0  0  0  0  0  0
  133.0310  134.1010  150.6970 C   0  0  0  0  0  0  0  0  0  0  0  0
  132.0910  134.7260  151.1730 O   0  0  0  0  0  0  0  0  0  0  0  0
  134.8110  133.1300  151.0300 H   0  0  0  0  0  0  0  0  0  0  0  0
  133.0980  133.6770  149.2390 C   0  0  0  0  0  2  0  0  0  0  0  0
  134.5330  133.4250  148.7470 C   0  0  0  0  0  3  0  0  0  0  0  0
  134.6420  132.1070  147.9740 C   0  0  0  0  0  1  0  0  0  0  0  0
  134.9880  134.5810  147.8510 C   0  0  0  0  0  1  0  0  0  0  0  0
  1  6  1  0  0  0  0
  2  1  2  0  0  0  0
  2  3  1  0  0  0  0
  3  4  2  0  0  0  0
  4  5  1  0  0  0  0
  6 11  1  0  0  0  0
  6  5  2  0  0  0  0
  7  1  1  0  0  0  0
  8  7  2  0  0  0  0
  9 10  1  0  0  0  0
 10  7  1  0  0  0  0
 11 12  1  0  0  0  0
 13  3  1  0  0  0  0
 14 13  1  0  0  0  0
 15 16  2  0  0  0  0
 15 14  1  0  0  0  0
 17 14  1  0  0  0  0
 18 15  1  0  0  0  0
 19 18  1  0  0  0  0
 20 19  1  0  0  0  0
 21 19  1  0  0  0  0
M  END
>  <MODEL>
6

>  <REMARK>
 VINA RESULT:    -5.732      2.598      4.840
 INTER + INTRA:          -8.625
 INTER:                  -7.890
 INTRA:                  -0.735
 UNBOUND:                -0.548
  Name = CHEMBL4517271
  11 active torsions:
  status: ('A' for Active; 'I' for Inactive)
    1  A    between atoms: C_1  and  O_2
    2  A    between atoms: O_2  and  C_3
    3  A    between atoms: C_3  and  C_5
    4  A    between atoms: C_7  and  C_8
    5  A    between atoms: C_8  and  N_9
    6  A    between atoms: C_10  and  C_12
    7  A    between atoms: C_12  and  C_13
    8  A    between atoms: C_13  and  C_14
    9  A    between atoms: C_13  and  C_15
   10  A    between atoms: C_18  and  O_19
   11  A    between atoms: O_19  and  C_20
                            x       y       z     vdW  Elec       q    Type
                         _______ _______ _______ _____ _____    ______ ____

>  <TORSDO>
F 7

>  <SCORE>
-5.732

>  <RMSD_LB>
2.598

>  <RMSD_UB>
4.840

$$$$
CHEMBL4517271
 OpenBabel10172500303D

 21 21  0  0  0  0  0  0  0  0999 V2000
  140.3550  138.1410  152.4180 C   0  0  0  0  0  0  0  0  0  0  0  0
  141.6200  137.7170  151.9480 C   0  0  0  0  0  3  0  0  0  0  0  0
  142.7630  137.7730  152.7570 C   0  0  0  0  0  0  0  0  0  0  0  0
  142.6260  138.2200  154.0720 C   0  0  0  0  0  3  0  0  0  0  0  0
  141.3750  138.6190  154.5550 C   0  0  0  0  0  3  0  0  0  0  0  0
  140.2280  138.5780  153.7450 C   0  0  0  0  0  0  0  0  0  0  0  0
  139.2670  138.2500  151.4140 C   0  0  0  0  0  0  0  0  0  0  0  0
  138.9160  139.2860  150.8750 O   0  0  0  0  0  0  0  0  0  0  0  0
  137.3360  136.9190  151.3400 C   0  0  0  0  0  1  0  0  0  0  0  0
  138.7520  137.0180  151.1640 O   0  0  0  0  0  0  0  0  0  0  0  0
  139.1160  139.0650  154.3790 O   0  0  0  0  0  0  0  0  0  0  0  0
  138.1720  138.1230  154.8760 C   0  0  0  0  0  1  0  0  0  0  0  0
  144.1110  137.3980  152.1990 C   0  0  0  0  0  2  0  0  0  0  0  0
  144.8180  138.5390  151.6700 N   0  0  0  0  0  0  0  0  0  0  0  0
  145.8840  139.0720  152.3610 C   0  0  0  0  0  0  0  0  0  0  0  0
  146.2350  138.6670  153.4630 O   0  0  0  0  0  0  0  0  0  0  0  0
  144.5380  138.9380  150.8150 H   0  0  0  0  0  0  0  0  0  0  0  0
  146.5540  140.2350  151.6470 C   0  0  0  0  0  2  0  0  0  0  0  0
  145.8450  141.5790  151.8810 C   0  0  0  0  0  3  0  0  0  0  0  0
  146.3290  142.2570  153.1660 C   0  0  0  0  0  1  0  0  0  0  0  0
  146.0860  142.5110  150.6900 C   0  0  0  0  0  1  0  0  0  0  0  0
  1  6  1  0  0  0  0
  2  1  2  0  0  0  0
  2  3  1  0  0  0  0
  3  4  2  0  0  0  0
  4  5  1  0  0  0  0
  6 11  1  0  0  0  0
  6  5  2  0  0  0  0
  7  1  1  0  0  0  0
  8  7  2  0  0  0  0
 10  9  1  0  0  0  0
 10  7  1  0  0  0  0
 11 12  1  0  0  0  0
 13  3  1  0  0  0  0
 14 13  1  0  0  0  0
 14 15  1  0  0  0  0
 15 16  2  0  0  0  0
 17 14  1  0  0  0  0
 18 19  1  0  0  0  0
 18 15  1  0  0  0  0
 19 20  1  0  0  0  0
 21 19  1  0  0  0  0
M  END
>  <MODEL>
7

>  <REMARK>
 VINA RESULT:    -5.721      4.050      7.749
 INTER + INTRA:          -8.610
 INTER:                  -7.911
 INTRA:                  -0.700
 UNBOUND:                -0.548
  Name = CHEMBL4517271
  11 active torsions:
  status: ('A' for Active; 'I' for Inactive)
    1  A    between atoms: C_1  and  O_2
    2  A    between atoms: O_2  and  C_3
    3  A    between atoms: C_3  and  C_5
    4  A    between atoms: C_7  and  C_8
    5  A    between atoms: C_8  and  N_9
    6  A    between atoms: C_10  and  C_12
    7  A    between atoms: C_12  and  C_13
    8  A    between atoms: C_13  and  C_14
    9  A    between atoms: C_13  and  C_15
   10  A    between atoms: C_18  and  O_19
   11  A    between atoms: O_19  and  C_20
                            x       y       z     vdW  Elec       q    Type
                         _______ _______ _______ _____ _____    ______ ____

>  <TORSDO>
F 7

>  <SCORE>
-5.721

>  <RMSD_LB>
4.050

>  <RMSD_UB>
7.749

$$$$
CHEMBL4517271
 OpenBabel10172500303D

 21 21  0  0  0  0  0  0  0  0999 V2000
  147.3920  139.9160  153.6370 C   0  0  0  0  0  0  0  0  0  0  0  0
  146.1300  140.2330  154.1910 C   0  0  0  0  0  3  0  0  0  0  0  0
  145.1570  139.2500  154.4190 C   0  0  0  0  0  0  0  0  0  0  0  0
  145.4740  137.9220  154.1280 C   0  0  0  0  0  3  0  0  0  0  0  0
  146.7280  137.5940  153.6040 C   0  0  0  0  0  3  0  0  0  0  0  0
  147.7020  138.5770  153.3600 C   0  0  0  0  0  0  0  0  0  0  0  0
  148.2530  141.0560  153.2310 C   0  0  0  0  0  0  0  0  0  0  0  0
  148.7900  141.8340  154.0010 O   0  0  0  0  0  0  0  0  0  0  0  0
  147.5970  142.0800  151.2240 C   0  0  0  0  0  1  0  0  0  0  0  0
  148.3760  141.0750  151.8780 O   0  0  0  0  0  0  0  0  0  0  0  0
  148.8370  138.0660  152.7900 O   0  0  0  0  0  0  0  0  0  0  0  0
  149.7480  137.3730  153.6370 C   0  0  0  0  0  1  0  0  0  0  0  0
  143.7910  139.6320  154.9260 C   0  0  0  0  0  2  0  0  0  0  0  0
  142.7810  139.5280  153.9010 N   0  0  0  0  0  0  0  0  0  0  0  0
  141.7830  138.5850  154.0070 C   0  0  0  0  0  0  0  0  0  0  0  0
  141.7390  137.7580  154.9110 O   0  0  0  0  0  0  0  0  0  0  0  0
  142.8060  140.1320  153.1240 H   0  0  0  0  0  0  0  0  0  0  0  0
  140.7690  138.6390  152.8760 C   0  0  0  0  0  2  0  0  0  0  0  0
  140.8190  137.4060  151.9590 C   0  0  0  0  0  3  0  0  0  0  0  0
  139.6950  137.4310  150.9180 C   0  0  0  0  0  1  0  0  0  0  0  0
  142.1720  137.3400  151.2460 C   0  0  0  0  0  1  0  0  0  0  0  0
  1  2  1  0  0  0  0
  2  3  2  0  0  0  0
  3 13  1  0  0  0  0
  4  3  1  0  0  0  0
  5  4  2  0  0  0  0
  6  5  1  0  0  0  0
  6  1  2  0  0  0  0
  7  1  1  0  0  0  0
  7  8  2  0  0  0  0
  9 10  1  0  0  0  0
 10  7  1  0  0  0  0
 11  6  1  0  0  0  0
 11 12  1  0  0  0  0
 14 15  1  0  0  0  0
 14 13  1  0  0  0  0
 15 16  2  0  0  0  0
 17 14  1  0  0  0  0
 18 15  1  0  0  0  0
 19 18  1  0  0  0  0
 20 19  1  0  0  0  0
 21 19  1  0  0  0  0
M  END
>  <MODEL>
8

>  <REMARK>
 VINA RESULT:    -5.652      5.456      8.461
 INTER + INTRA:          -8.513
 INTER:                  -7.872
 INTRA:                  -0.641
 UNBOUND:                -0.548
  Name = CHEMBL4517271
  11 active torsions:
  status: ('A' for Active; 'I' for Inactive)
    1  A    between atoms: C_1  and  O_2
    2  A    between atoms: O_2  and  C_3
    3  A    between atoms: C_3  and  C_5
    4  A    between atoms: C_7  and  C_8
    5  A    between atoms: C_8  and  N_9
    6  A    between atoms: C_10  and  C_12
    7  A    between atoms: C_12  and  C_13
    8  A    between atoms: C_13  and  C_14
    9  A    between atoms: C_13  and  C_15
   10  A    between atoms: C_18  and  O_19
   11  A    between atoms: O_19  and  C_20
                            x       y       z     vdW  Elec       q    Type
                         _______ _______ _______ _____ _____    ______ ____

>  <TORSDO>
F 7

>  <SCORE>
-5.652

>  <RMSD_LB>
5.456

>  <RMSD_UB>
8.461

$$$$
CHEMBL4517271
 OpenBabel10172500303D

 21 21  0  0  0  0  0  0  0  0999 V2000
  140.8210  137.9020  153.0480 C   0  0  0  0  0  0  0  0  0  0  0  0
  139.5360  137.9020  152.4580 C   0  0  0  0  0  3  0  0  0  0  0  0
  139.3420  137.5490  151.1150 C   0  0  0  0  0  0  0  0  0  0  0  0
  140.4500  137.1480  150.3670 C   0  0  0  0  0  3  0  0  0  0  0  0
  141.7220  137.1200  150.9480 C   0  0  0  0  0  3  0  0  0  0  0  0
  141.9250  137.4850  152.2900 C   0  0  0  0  0  0  0  0  0  0  0  0
  140.9390  138.5050  154.4000 C   0  0  0  0  0  0  0  0  0  0  0  0
  141.7840  139.3200  154.7300 O   0  0  0  0  0  0  0  0  0  0  0  0
  140.3790  137.5510  156.4700 C   0  0  0  0  0  1  0  0  0  0  0  0
  139.9430  138.0370  155.1970 O   0  0  0  0  0  0  0  0  0  0  0  0
  143.2440  137.4510  152.6530 O   0  0  0  0  0  0  0  0  0  0  0  0
  144.2090  137.2670  151.6230 C   0  0  0  0  0  1  0  0  0  0  0  0
  137.9750  137.6450  150.4910 C   0  0  0  0  0  2  0  0  0  0  0  0
  137.0420  136.7150  151.0790 N   0  0  0  0  0  0  0  0  0  0  0  0
  136.7940  135.5050  150.4680 C   0  0  0  0  0  0  0  0  0  0  0  0
  137.2790  135.1920  149.3870 O   0  0  0  0  0  0  0  0  0  0  0  0
  136.5810  136.9450  151.9180 H   0  0  0  0  0  0  0  0  0  0  0  0
  135.8290  134.6180  151.2390 C   0  0  0  0  0  2  0  0  0  0  0  0
  134.3890  134.6840  150.7060 C   0  0  0  0  0  3  0  0  0  0  0  0
  133.7020  133.3150  150.7620 C   0  0  0  0  0  1  0  0  0  0  0  0
  133.5760  135.6950  151.5200 C   0  0  0  0  0  1  0  0  0  0  0  0
  1  7  1  0  0  0  0
  2  1  1  0  0  0  0
  3  2  2  0  0  0  0
  4  5  2  0  0  0  0
  4  3  1  0  0  0  0
  5  6  1  0  0  0  0
  6 11  1  0  0  0  0
  6  1  2  0  0  0  0
  7  8  2  0  0  0  0
  7 10  1  0  0  0  0
 10  9  1  0  0  0  0
 12 11  1  0  0  0  0
 13 14  1  0  0  0  0
 13  3  1  0  0  0  0
 14 17  1  0  0  0  0
 15 14  1  0  0  0  0
 15 18  1  0  0  0  0
 16 15  2  0  0  0  0
 19 20  1  0  0  0  0
 19 18  1  0  0  0  0
 19 21  1  0  0  0  0
M  END
>  <MODEL>
9

>  <REMARK>
 VINA RESULT:    -5.615      1.698      2.540
 INTER + INTRA:          -8.460
 INTER:                  -7.912
 INTRA:                  -0.548
 UNBOUND:                -0.548
  Name = CHEMBL4517271
  11 active torsions:
  status: ('A' for Active; 'I' for Inactive)
    1  A    between atoms: C_1  and  O_2
    2  A    between atoms: O_2  and  C_3
    3  A    between atoms: C_3  and  C_5
    4  A    between atoms: C_7  and  C_8
    5  A    between atoms: C_8  and  N_9
    6  A    between atoms: C_10  and  C_12
    7  A    between atoms: C_12  and  C_13
    8  A    between atoms: C_13  and  C_14
    9  A    between atoms: C_13  and  C_15
   10  A    between atoms: C_18  and  O_19
   11  A    between atoms: O_19  and  C_20
                            x       y       z     vdW  Elec       q    Type
                         _______ _______ _______ _____ _____    ______ ____

>  <TORSDO>
F 7

>  <SCORE>
-5.615

>  <RMSD_LB>
1.698

>  <RMSD_UB>
2.540

$$$$
