CHEMBL5268706
 OpenBabel10172500433D

 37 37  0  0  0  0  0  0  0  0999 V2000
  136.3830  136.5530  154.8090 C   0  0  0  0  0  0  0  0  0  0  0  0
  137.1440  136.8960  153.6870 C   0  0  0  0  0  3  0  0  0  0  0  0
  138.2750  137.7090  153.8130 C   0  0  0  0  0  3  0  0  0  0  0  0
  138.6600  138.2070  155.0620 C   0  0  0  0  0  0  0  0  0  0  0  0
  137.8850  137.8930  156.1890 C   0  0  0  0  0  0  0  0  0  0  0  0
  136.7790  137.0380  156.0640 C   0  0  0  0  0  3  0  0  0  0  0  0
  138.1300  138.3370  157.4670 O   0  0  0  0  0  0  0  0  0  0  0  0
  137.4710  137.5870  158.4880 C   0  0  0  0  0  1  0  0  0  0  0  0
  135.1500  135.7040  154.6570 C   0  0  0  0  0  2  0  0  0  0  0  0
  134.3770  134.0720  153.0200 C   0  0  0  0  0  0  0  0  0  0  0  0
  134.0560  133.2790  153.9060 O   0  0  0  0  0  0  0  0  0  0  0  0
  134.9010  135.3180  153.2910 N   0  0  0  0  0  0  0  0  0  0  0  0
  135.1040  135.9400  152.5540 H   0  0  0  0  0  0  0  0  0  0  0  0
  134.1960  133.7440  151.5530 C   0  0  0  0  0  2  0  0  0  0  0  0
  132.7870  134.0610  151.0680 C   0  0  0  0  0  2  0  0  0  0  0  0
  132.6390  133.7840  149.5730 C   0  0  0  0  0  2  0  0  0  0  0  0
  134.0000  133.8200  148.8790 C   0  0  0  0  0  2  0  0  0  0  0  0
  134.0440  134.8860  147.7860 C   0  0  0  0  0  2  0  0  0  0  0  0
  134.0080  136.2870  148.3950 C   0  0  0  0  0  2  0  0  0  0  0  0
  132.8310  137.4900  146.5260 C   0  0  0  0  0  1  0  0  0  0  0  0
  132.7490  137.0440  147.9760 C   0  0  0  0  0  2  0  0  0  0  0  0
  139.8230  138.9030  155.2600 O   0  0  0  0  0  0  0  0  0  0  0  0
  141.0390  138.1660  155.1650 C   0  0  0  0  0  2  0  0  0  0  0  0
  142.1070  139.1040  154.6050 C   0  0  0  0  0  2  0  0  0  0  0  0
  142.5950  138.6290  153.2370 C   0  0  0  0  0  2  0  0  0  0  0  0
  141.6140  137.6450  152.6040 C   0  0  0  0  0  2  0  0  0  0  0  0
  141.6570  137.7060  151.0730 C   0  0  0  0  0  2  0  0  0  0  0  0
  141.6180  139.1580  150.5950 C   0  0  0  0  0  2  0  0  0  0  0  0
  140.3490  139.4780  149.9760 N   0  0  0  0  0  0  0  0  0  0  0  0
  139.2810  139.9720  150.6490 C   0  0  0  0  0  0  0  0  0  0  0  0
  139.2660  140.4300  151.8430 N   0  0  0  0  0  0  0  0  0  0  0  0
  138.1390  139.9470  149.9430 N   0  0  0  0  0  4  0  0  0  0  0  0
  140.2560  139.3270  149.0070 H   0  0  0  0  0  0  0  0  0  0  0  0
  140.0960  140.4550  152.3720 H   0  0  0  0  0  0  0  0  0  0  0  0
  138.4240  140.7590  152.2340 H   0  0  0  0  0  0  0  0  0  0  0  0
  138.1370  139.5960  149.0230 H   0  0  0  0  0  0  0  0  0  0  0  0
  137.3040  140.2790  150.3450 H   0  0  0  0  0  0  0  0  0  0  0  0
  1  6  1  0  0  0  0
  2  3  1  0  0  0  0
  2  1  2  0  0  0  0
  3  4  2  0  0  0  0
  4 22  1  0  0  0  0
  4  5  1  0  0  0  0
  5  7  1  0  0  0  0
  6  5  2  0  0  0  0
  7  8  1  0  0  0  0
  9  1  1  0  0  0  0
 10 12  1  0  0  0  0
 10 11  2  0  0  0  0
 12  9  1  0  0  0  0
 13 12  1  0  0  0  0
 14 10  1  0  0  0  0
 15 14  1  0  0  0  0
 16 15  1  0  0  0  0
 17 16  1  0  0  0  0
 18 19  1  0  0  0  0
 18 17  1  0  0  0  0
 20 21  1  0  0  0  0
 21 19  1  0  0  0  0
 23 22  1  0  0  0  0
 24 23  1  0  0  0  0
 25 24  1  0  0  0  0
 26 25  1  0  0  0  0
 27 26  1  0  0  0  0
 28 27  1  0  0  0  0
 29 28  1  0  0  0  0
 29 30  1  0  0  0  0
 30 31  1  0  0  0  0
 31 35  1  0  0  0  0
 31 34  1  0  0  0  0
 32 37  1  0  0  0  0
 32 30  2  0  0  0  0
 33 29  1  0  0  0  0
 36 32  1  0  0  0  0
M  END
>  <MODEL>
1

>  <REMARK>
 VINA RESULT:    -6.874      0.000      0.000
 INTER + INTRA:         -15.759
 INTER:                 -13.948
 INTRA:                  -1.811
 UNBOUND:                -1.651
  Name = CHEMBL5268706
  20 active torsions:
  status: ('A' for Active; 'I' for Inactive)
    1  A    between atoms: C_1  and  C_2
    2  A    between atoms: C_2  and  C_3
    3  A    between atoms: C_3  and  C_4
    4  A    between atoms: C_4  and  C_5
    5  A    between atoms: C_5  and  C_6
    6  A    between atoms: C_6  and  C_7
    7  A    between atoms: C_7  and  C_8
    8  A    between atoms: C_8  and  C_9
    9  A    between atoms: N_11  and  C_12
   10  A    between atoms: C_12  and  C_13
   11  A    between atoms: C_16  and  O_17
   12  A    between atoms: O_17  and  C_18
   13  A    between atoms: C_18  and  C_19
   14  A    between atoms: C_19  and  C_20
   15  A    between atoms: C_20  and  C_21
   16  A    between atoms: C_21  and  C_22
   17  A    between atoms: C_22  and  C_23
   18  A    between atoms: C_23  and  N_24
   19  A    between atoms: C_28  and  O_29
   20  A    between atoms: O_29  and  C_30
                            x       y       z     vdW  Elec       q    Type
                         _______ _______ _______ _____ _____    ______ ____

>  <TORSDO>
F 18

>  <SCORE>
-6.874

>  <RMSD_LB>
0.000

>  <RMSD_UB>
0.000

$$$$
CHEMBL5268706
 OpenBabel10172500433D

 37 37  0  0  0  0  0  0  0  0999 V2000
  141.9560  138.6150  151.8860 C   0  0  0  0  0  0  0  0  0  0  0  0
  142.2580  139.6020  150.9430 C   0  0  0  0  0  3  0  0  0  0  0  0
  143.5740  139.7980  150.5100 C   0  0  0  0  0  3  0  0  0  0  0  0
  144.6170  139.0210  151.0240 C   0  0  0  0  0  0  0  0  0  0  0  0
  144.3290  138.0480  151.9930 C   0  0  0  0  0  0  0  0  0  0  0  0
  143.0010  137.8230  152.3880 C   0  0  0  0  0  3  0  0  0  0  0  0
  145.2570  137.2370  152.6010 O   0  0  0  0  0  0  0  0  0  0  0  0
  144.8810  136.7850  153.9030 C   0  0  0  0  0  1  0  0  0  0  0  0
  140.5430  138.4350  152.3680 C   0  0  0  0  0  2  0  0  0  0  0  0
  139.9360  138.4740  154.7280 C   0  0  0  0  0  0  0  0  0  0  0  0
  139.4650  139.6080  154.6270 O   0  0  0  0  0  0  0  0  0  0  0  0
  140.4680  137.7910  153.6560 N   0  0  0  0  0  0  0  0  0  0  0  0
  140.7950  136.8690  153.7690 H   0  0  0  0  0  0  0  0  0  0  0  0
  139.9450  137.7290  156.0460 C   0  0  0  0  0  2  0  0  0  0  0  0
  138.5370  137.4970  156.5780 C   0  0  0  0  0  2  0  0  0  0  0  0
  138.1510  136.0210  156.5030 C   0  0  0  0  0  2  0  0  0  0  0  0
  136.6340  135.8640  156.4030 C   0  0  0  0  0  2  0  0  0  0  0  0
  136.1820  135.6920  154.9540 C   0  0  0  0  0  2  0  0  0  0  0  0
  134.7090  136.0660  154.7980 C   0  0  0  0  0  2  0  0  0  0  0  0
  134.6310  133.8390  153.6320 C   0  0  0  0  0  1  0  0  0  0  0  0
  134.0350  135.2350  153.7080 C   0  0  0  0  0  2  0  0  0  0  0  0
  145.8990  139.0880  150.5460 O   0  0  0  0  0  0  0  0  0  0  0  0
  146.2070  140.1720  149.6740 C   0  0  0  0  0  2  0  0  0  0  0  0
  147.1280  141.1280  150.4290 C   0  0  0  0  0  2  0  0  0  0  0  0
  146.4550  142.4810  150.6530 C   0  0  0  0  0  2  0  0  0  0  0  0
  145.6800  142.5090  151.9690 C   0  0  0  0  0  2  0  0  0  0  0  0
  146.5510  142.0670  153.1500 C   0  0  0  0  0  2  0  0  0  0  0  0
  145.9240  140.8620  153.8540 C   0  0  0  0  0  2  0  0  0  0  0  0
  146.7830  140.3560  154.9030 N   0  0  0  0  0  0  0  0  0  0  0  0
  147.5750  139.2630  154.7720 C   0  0  0  0  0  0  0  0  0  0  0  0
  147.8630  138.6430  153.6910 N   0  0  0  0  0  4  0  0  0  0  0  0
  148.0800  138.8200  155.9350 N   0  0  0  0  0  0  0  0  0  0  0  0
  146.7930  140.8330  155.7640 H   0  0  0  0  0  0  0  0  0  0  0  0
  147.5000  138.9580  152.8310 H   0  0  0  0  0  0  0  0  0  0  0  0
  148.4480  137.8520  153.7180 H   0  0  0  0  0  0  0  0  0  0  0  0
  147.8660  139.2880  156.7750 H   0  0  0  0  0  0  0  0  0  0  0  0
  148.6640  138.0280  155.9480 H   0  0  0  0  0  0  0  0  0  0  0  0
  1  9  1  0  0  0  0
  1  6  1  0  0  0  0
  2  1  2  0  0  0  0
  3  2  1  0  0  0  0
  3  4  2  0  0  0  0
  4  5  1  0  0  0  0
  5  6  2  0  0  0  0
  5  7  1  0  0  0  0
  7  8  1  0  0  0  0
  9 12  1  0  0  0  0
 10 14  1  0  0  0  0
 11 10  2  0  0  0  0
 12 13  1  0  0  0  0
 12 10  1  0  0  0  0
 14 15  1  0  0  0  0
 16 15  1  0  0  0  0
 17 16  1  0  0  0  0
 18 17  1  0  0  0  0
 19 18  1  0  0  0  0
 20 21  1  0  0  0  0
 21 19  1  0  0  0  0
 22  4  1  0  0  0  0
 23 24  1  0  0  0  0
 23 22  1  0  0  0  0
 24 25  1  0  0  0  0
 25 26  1  0  0  0  0
 26 27  1  0  0  0  0
 27 28  1  0  0  0  0
 28 29  1  0  0  0  0
 29 33  1  0  0  0  0
 30 29  1  0  0  0  0
 30 32  1  0  0  0  0
 31 35  1  0  0  0  0
 31 30  2  0  0  0  0
 32 37  1  0  0  0  0
 32 36  1  0  0  0  0
 34 31  1  0  0  0  0
M  END
>  <MODEL>
2

>  <REMARK>
 VINA RESULT:    -6.869      4.321      7.700
 INTER + INTRA:         -15.748
 INTER:                 -13.613
 INTRA:                  -2.135
 UNBOUND:                -1.651
  Name = CHEMBL5268706
  20 active torsions:
  status: ('A' for Active; 'I' for Inactive)
    1  A    between atoms: C_1  and  C_2
    2  A    between atoms: C_2  and  C_3
    3  A    between atoms: C_3  and  C_4
    4  A    between atoms: C_4  and  C_5
    5  A    between atoms: C_5  and  C_6
    6  A    between atoms: C_6  and  C_7
    7  A    between atoms: C_7  and  C_8
    8  A    between atoms: C_8  and  C_9
    9  A    between atoms: N_11  and  C_12
   10  A    between atoms: C_12  and  C_13
   11  A    between atoms: C_16  and  O_17
   12  A    between atoms: O_17  and  C_18
   13  A    between atoms: C_18  and  C_19
   14  A    between atoms: C_19  and  C_20
   15  A    between atoms: C_20  and  C_21
   16  A    between atoms: C_21  and  C_22
   17  A    between atoms: C_22  and  C_23
   18  A    between atoms: C_23  and  N_24
   19  A    between atoms: C_28  and  O_29
   20  A    between atoms: O_29  and  C_30
                            x       y       z     vdW  Elec       q    Type
                         _______ _______ _______ _____ _____    ______ ____

>  <TORSDO>
F 18

>  <SCORE>
-6.869

>  <RMSD_LB>
4.321

>  <RMSD_UB>
7.700

$$$$
CHEMBL5268706
 OpenBabel10172500433D

 37 37  0  0  0  0  0  0  0  0999 V2000
  142.7570  137.5650  153.3160 C   0  0  0  0  0  0  0  0  0  0  0  0
  142.4590  137.3710  151.9650 C   0  0  0  0  0  3  0  0  0  0  0  0
  141.2560  137.8390  151.4240 C   0  0  0  0  0  3  0  0  0  0  0  0
  140.3210  138.4980  152.2290 C   0  0  0  0  0  0  0  0  0  0  0  0
  140.5990  138.6710  153.5940 C   0  0  0  0  0  0  0  0  0  0  0  0
  141.8270  138.2420  154.1200 C   0  0  0  0  0  3  0  0  0  0  0  0
  139.7600  139.2710  154.5020 O   0  0  0  0  0  0  0  0  0  0  0  0
  138.9670  138.3600  155.2640 C   0  0  0  0  0  1  0  0  0  0  0  0
  144.0390  137.0290  153.8930 C   0  0  0  0  0  2  0  0  0  0  0  0
  146.2290  137.7780  154.6550 C   0  0  0  0  0  0  0  0  0  0  0  0
  146.7240  136.6690  154.4450 O   0  0  0  0  0  0  0  0  0  0  0  0
  144.9100  138.0670  154.3840 N   0  0  0  0  0  0  0  0  0  0  0  0
  144.5640  138.9790  154.5260 H   0  0  0  0  0  0  0  0  0  0  0  0
  147.0490  138.9240  155.2100 C   0  0  0  0  0  2  0  0  0  0  0  0
  147.9790  139.5190  154.1620 C   0  0  0  0  0  2  0  0  0  0  0  0
  148.4900  140.8940  154.5880 C   0  0  0  0  0  2  0  0  0  0  0  0
  148.0220  141.9710  153.6090 C   0  0  0  0  0  2  0  0  0  0  0  0
  146.5030  142.1320  153.6380 C   0  0  0  0  0  2  0  0  0  0  0  0
  145.9600  142.3900  152.2330 C   0  0  0  0  0  2  0  0  0  0  0  0
  146.5590  142.6960  149.8090 C   0  0  0  0  0  1  0  0  0  0  0  0
  147.0600  142.2720  151.1800 C   0  0  0  0  0  2  0  0  0  0  0  0
  139.1880  139.0820  151.7280 O   0  0  0  0  0  0  0  0  0  0  0  0
  138.3860  138.2900  150.8560 C   0  0  0  0  0  2  0  0  0  0  0  0
  137.7440  137.1850  151.6930 C   0  0  0  0  0  2  0  0  0  0  0  0
  136.5750  136.5400  150.9500 C   0  0  0  0  0  2  0  0  0  0  0  0
  137.0560  135.4750  149.9670 C   0  0  0  0  0  2  0  0  0  0  0  0
  135.9390  135.0390  149.0120 C   0  0  0  0  0  2  0  0  0  0  0  0
  134.6730  135.8610  149.2600 C   0  0  0  0  0  2  0  0  0  0  0  0
  133.5320  135.0100  149.5200 N   0  0  0  0  0  0  0  0  0  0  0  0
  133.0520  134.7440  150.7600 C   0  0  0  0  0  0  0  0  0  0  0  0
  133.3610  135.3360  151.8510 N   0  0  0  0  0  0  0  0  0  0  0  0
  132.1660  133.7350  150.7920 N   0  0  0  0  0  4  0  0  0  0  0  0
  133.0760  134.5980  148.7500 H   0  0  0  0  0  0  0  0  0  0  0  0
  134.0090  136.0770  151.8430 H   0  0  0  0  0  0  0  0  0  0  0  0
  132.9510  135.0510  152.7000 H   0  0  0  0  0  0  0  0  0  0  0  0
  131.9190  133.2700  149.9590 H   0  0  0  0  0  0  0  0  0  0  0  0
  131.7630  133.4600  151.6470 H   0  0  0  0  0  0  0  0  0  0  0  0
  1  9  1  0  0  0  0
  1  6  1  0  0  0  0
  2  1  2  0  0  0  0
  3  2  1  0  0  0  0
  3  4  2  0  0  0  0
  4  5  1  0  0  0  0
  5  6  2  0  0  0  0
  5  7  1  0  0  0  0
  7  8  1  0  0  0  0
  9 12  1  0  0  0  0
 10 14  1  0  0  0  0
 11 10  2  0  0  0  0
 12 13  1  0  0  0  0
 12 10  1  0  0  0  0
 15 16  1  0  0  0  0
 15 14  1  0  0  0  0
 17 18  1  0  0  0  0
 17 16  1  0  0  0  0
 19 18  1  0  0  0  0
 20 21  1  0  0  0  0
 21 19  1  0  0  0  0
 22  4  1  0  0  0  0
 23 24  1  0  0  0  0
 23 22  1  0  0  0  0
 25 24  1  0  0  0  0
 26 25  1  0  0  0  0
 27 28  1  0  0  0  0
 27 26  1  0  0  0  0
 28 29  1  0  0  0  0
 29 30  1  0  0  0  0
 30 32  2  0  0  0  0
 30 31  1  0  0  0  0
 31 35  1  0  0  0  0
 32 37  1  0  0  0  0
 33 29  1  0  0  0  0
 34 31  1  0  0  0  0
 36 32  1  0  0  0  0
M  END
>  <MODEL>
3

>  <REMARK>
 VINA RESULT:    -6.835      3.927     10.170
 INTER + INTRA:         -15.679
 INTER:                 -14.246
 INTRA:                  -1.433
 UNBOUND:                -1.651
  Name = CHEMBL5268706
  20 active torsions:
  status: ('A' for Active; 'I' for Inactive)
    1  A    between atoms: C_1  and  C_2
    2  A    between atoms: C_2  and  C_3
    3  A    between atoms: C_3  and  C_4
    4  A    between atoms: C_4  and  C_5
    5  A    between atoms: C_5  and  C_6
    6  A    between atoms: C_6  and  C_7
    7  A    between atoms: C_7  and  C_8
    8  A    between atoms: C_8  and  C_9
    9  A    between atoms: N_11  and  C_12
   10  A    between atoms: C_12  and  C_13
   11  A    between atoms: C_16  and  O_17
   12  A    between atoms: O_17  and  C_18
   13  A    between atoms: C_18  and  C_19
   14  A    between atoms: C_19  and  C_20
   15  A    between atoms: C_20  and  C_21
   16  A    between atoms: C_21  and  C_22
   17  A    between atoms: C_22  and  C_23
   18  A    between atoms: C_23  and  N_24
   19  A    between atoms: C_28  and  O_29
   20  A    between atoms: O_29  and  C_30
                            x       y       z     vdW  Elec       q    Type
                         _______ _______ _______ _____ _____    ______ ____

>  <TORSDO>
F 18

>  <SCORE>
-6.835

>  <RMSD_LB>
3.927

>  <RMSD_UB>
10.170

$$$$
CHEMBL5268706
 OpenBabel10172500433D

 37 37  0  0  0  0  0  0  0  0999 V2000
  146.9090  136.9490  151.5980 C   0  0  0  0  0  0  0  0  0  0  0  0
  145.8570  137.6980  152.1330 C   0  0  0  0  0  3  0  0  0  0  0  0
  146.0850  138.6110  153.1690 C   0  0  0  0  0  3  0  0  0  0  0  0
  147.3680  138.7810  153.7000 C   0  0  0  0  0  0  0  0  0  0  0  0
  148.4250  138.0130  153.1890 C   0  0  0  0  0  0  0  0  0  0  0  0
  148.1990  137.1340  152.1180 C   0  0  0  0  0  3  0  0  0  0  0  0
  149.7240  138.0570  153.6350 O   0  0  0  0  0  0  0  0  0  0  0  0
  150.5370  136.9690  153.1920 C   0  0  0  0  0  1  0  0  0  0  0  0
  146.6460  135.9480  150.5060 C   0  0  0  0  0  2  0  0  0  0  0  0
  144.5350  135.8920  149.2900 C   0  0  0  0  0  0  0  0  0  0  0  0
  145.0370  136.4550  148.3160 O   0  0  0  0  0  0  0  0  0  0  0  0
  145.2580  135.5680  150.4170 N   0  0  0  0  0  0  0  0  0  0  0  0
  144.8300  135.0790  151.1570 H   0  0  0  0  0  0  0  0  0  0  0  0
  143.0750  135.4900  149.3130 C   0  0  0  0  0  2  0  0  0  0  0  0
  142.1520  136.6880  149.1350 C   0  0  0  0  0  2  0  0  0  0  0  0
  141.3710  136.9840  150.4140 C   0  0  0  0  0  2  0  0  0  0  0  0
  142.3190  137.3810  151.5460 C   0  0  0  0  0  2  0  0  0  0  0  0
  141.5610  137.6450  152.8450 C   0  0  0  0  0  2  0  0  0  0  0  0
  142.3850  138.5260  153.7830 C   0  0  0  0  0  2  0  0  0  0  0  0
  140.1620  138.3890  154.9530 C   0  0  0  0  0  1  0  0  0  0  0  0
  141.5610  138.9840  154.9850 C   0  0  0  0  0  2  0  0  0  0  0  0
  147.6680  139.7450  154.6260 O   0  0  0  0  0  0  0  0  0  0  0  0
  147.4850  141.1010  154.2270 C   0  0  0  0  0  2  0  0  0  0  0  0
  148.8610  141.6760  153.8950 C   0  0  0  0  0  2  0  0  0  0  0  0
  149.0420  141.8380  152.3870 C   0  0  0  0  0  2  0  0  0  0  0  0
  147.7480  141.5380  151.6330 C   0  0  0  0  0  2  0  0  0  0  0  0
  147.4520  142.6010  150.5690 C   0  0  0  0  0  2  0  0  0  0  0  0
  145.9550  142.6410  150.2570 C   0  0  0  0  0  2  0  0  0  0  0  0
  145.5450  141.4890  149.4820 N   0  0  0  0  0  0  0  0  0  0  0  0
  144.6840  140.5430  149.9300 C   0  0  0  0  0  0  0  0  0  0  0  0
  143.9460  140.6020  150.9730 N   0  0  0  0  0  0  0  0  0  0  0  0
  144.6480  139.4400  149.1650 N   0  0  0  0  0  4  0  0  0  0  0  0
  145.9130  141.3870  148.5750 H   0  0  0  0  0  0  0  0  0  0  0  0
  143.9620  141.4040  151.5430 H   0  0  0  0  0  0  0  0  0  0  0  0
  143.3600  139.8450  151.2050 H   0  0  0  0  0  0  0  0  0  0  0  0
  145.2110  139.3810  148.3590 H   0  0  0  0  0  0  0  0  0  0  0  0
  144.0570  138.6900  149.4080 H   0  0  0  0  0  0  0  0  0  0  0  0
  1  6  2  0  0  0  0
  1  2  1  0  0  0  0
  2  3  2  0  0  0  0
  3  4  1  0  0  0  0
  4 22  1  0  0  0  0
  5  7  1  0  0  0  0
  5  4  2  0  0  0  0
  6  5  1  0  0  0  0
  8  7  1  0  0  0  0
  9  1  1  0  0  0  0
 10 14  1  0  0  0  0
 10 12  1  0  0  0  0
 11 10  2  0  0  0  0
 12  9  1  0  0  0  0
 12 13  1  0  0  0  0
 15 14  1  0  0  0  0
 15 16  1  0  0  0  0
 16 17  1  0  0  0  0
 17 18  1  0  0  0  0
 18 19  1  0  0  0  0
 19 21  1  0  0  0  0
 20 21  1  0  0  0  0
 23 22  1  0  0  0  0
 24 23  1  0  0  0  0
 25 24  1  0  0  0  0
 26 25  1  0  0  0  0
 27 26  1  0  0  0  0
 28 27  1  0  0  0  0
 29 30  1  0  0  0  0
 29 28  1  0  0  0  0
 30 31  1  0  0  0  0
 31 35  1  0  0  0  0
 31 34  1  0  0  0  0
 32 37  1  0  0  0  0
 32 30  2  0  0  0  0
 33 29  1  0  0  0  0
 36 32  1  0  0  0  0
M  END
>  <MODEL>
4

>  <REMARK>
 VINA RESULT:    -6.746      6.463      9.508
 INTER + INTRA:         -15.496
 INTER:                 -12.621
 INTRA:                  -2.876
 UNBOUND:                -1.651
  Name = CHEMBL5268706
  20 active torsions:
  status: ('A' for Active; 'I' for Inactive)
    1  A    between atoms: C_1  and  C_2
    2  A    between atoms: C_2  and  C_3
    3  A    between atoms: C_3  and  C_4
    4  A    between atoms: C_4  and  C_5
    5  A    between atoms: C_5  and  C_6
    6  A    between atoms: C_6  and  C_7
    7  A    between atoms: C_7  and  C_8
    8  A    between atoms: C_8  and  C_9
    9  A    between atoms: N_11  and  C_12
   10  A    between atoms: C_12  and  C_13
   11  A    between atoms: C_16  and  O_17
   12  A    between atoms: O_17  and  C_18
   13  A    between atoms: C_18  and  C_19
   14  A    between atoms: C_19  and  C_20
   15  A    between atoms: C_20  and  C_21
   16  A    between atoms: C_21  and  C_22
   17  A    between atoms: C_22  and  C_23
   18  A    between atoms: C_23  and  N_24
   19  A    between atoms: C_28  and  O_29
   20  A    between atoms: O_29  and  C_30
                            x       y       z     vdW  Elec       q    Type
                         _______ _______ _______ _____ _____    ______ ____

>  <TORSDO>
F 18

>  <SCORE>
-6.746

>  <RMSD_LB>
6.463

>  <RMSD_UB>
9.508

$$$$
CHEMBL5268706
 OpenBabel10172500433D

 37 37  0  0  0  0  0  0  0  0999 V2000
  144.6150  137.2640  152.4860 C   0  0  0  0  0  0  0  0  0  0  0  0
  144.8920  137.3260  151.1170 C   0  0  0  0  0  3  0  0  0  0  0  0
  143.8620  137.5120  150.1880 C   0  0  0  0  0  3  0  0  0  0  0  0
  142.5330  137.6240  150.6100 C   0  0  0  0  0  0  0  0  0  0  0  0
  142.2420  137.5330  151.9790 C   0  0  0  0  0  0  0  0  0  0  0  0
  143.2840  137.3940  152.9100 C   0  0  0  0  0  3  0  0  0  0  0  0
  140.9830  137.5960  152.5280 O   0  0  0  0  0  0  0  0  0  0  0  0
  140.9130  138.3140  153.7600 C   0  0  0  0  0  1  0  0  0  0  0  0
  145.7270  137.0320  153.4730 C   0  0  0  0  0  2  0  0  0  0  0  0
  147.7780  138.2890  153.0890 C   0  0  0  0  0  0  0  0  0  0  0  0
  148.2110  137.4240  152.3270 O   0  0  0  0  0  0  0  0  0  0  0  0
  146.5400  138.2030  153.6870 N   0  0  0  0  0  0  0  0  0  0  0  0
  146.2120  138.9370  154.2560 H   0  0  0  0  0  0  0  0  0  0  0  0
  148.5730  139.5360  153.4120 C   0  0  0  0  0  2  0  0  0  0  0  0
  147.7320  140.5750  154.1430 C   0  0  0  0  0  2  0  0  0  0  0  0
  147.6220  141.8680  153.3370 C   0  0  0  0  0  2  0  0  0  0  0  0
  146.1590  142.2860  153.1860 C   0  0  0  0  0  2  0  0  0  0  0  0
  145.5460  141.7270  151.9030 C   0  0  0  0  0  2  0  0  0  0  0  0
  145.8580  142.6360  150.7140 C   0  0  0  0  0  2  0  0  0  0  0  0
  146.6910  140.3940  149.9360 C   0  0  0  0  0  1  0  0  0  0  0  0
  146.5680  141.8710  149.5990 C   0  0  0  0  0  2  0  0  0  0  0  0
  141.5050  137.9280  149.7570 O   0  0  0  0  0  0  0  0  0  0  0  0
  141.4120  137.1610  148.5600 C   0  0  0  0  0  2  0  0  0  0  0  0
  140.9930  135.7440  148.9490 C   0  0  0  0  0  2  0  0  0  0  0  0
  139.6640  135.3640  148.2970 C   0  0  0  0  0  2  0  0  0  0  0  0
  138.5730  136.3840  148.6160 C   0  0  0  0  0  2  0  0  0  0  0  0
  138.1070  136.2800  150.0720 C   0  0  0  0  0  2  0  0  0  0  0  0
  137.5420  137.6190  150.5490 C   0  0  0  0  0  2  0  0  0  0  0  0
  138.5920  138.5030  151.0080 N   0  0  0  0  0  0  0  0  0  0  0  0
  138.8280  139.7330  150.4880 C   0  0  0  0  0  0  0  0  0  0  0  0
  138.0730  140.3930  149.6940 N   0  0  0  0  0  4  0  0  0  0  0  0
  139.9980  140.2670  150.8740 N   0  0  0  0  0  0  0  0  0  0  0  0
  139.1710  138.1930  151.7420 H   0  0  0  0  0  0  0  0  0  0  0  0
  137.2130  140.0140  149.4040 H   0  0  0  0  0  0  0  0  0  0  0  0
  138.3520  141.2820  149.3740 H   0  0  0  0  0  0  0  0  0  0  0  0
  140.5890  139.7690  151.4850 H   0  0  0  0  0  0  0  0  0  0  0  0
  140.2650  141.1570  150.5470 H   0  0  0  0  0  0  0  0  0  0  0  0
  1  6  1  0  0  0  0
  1  9  1  0  0  0  0
  2  1  2  0  0  0  0
  3  4  2  0  0  0  0
  3  2  1  0  0  0  0
  4  5  1  0  0  0  0
  5  7  1  0  0  0  0
  5  6  2  0  0  0  0
  7  8  1  0  0  0  0
  9 12  1  0  0  0  0
 10 14  1  0  0  0  0
 10 12  1  0  0  0  0
 11 10  2  0  0  0  0
 12 13  1  0  0  0  0
 14 15  1  0  0  0  0
 16 15  1  0  0  0  0
 17 16  1  0  0  0  0
 18 17  1  0  0  0  0
 19 18  1  0  0  0  0
 21 20  1  0  0  0  0
 21 19  1  0  0  0  0
 22  4  1  0  0  0  0
 23 24  1  0  0  0  0
 23 22  1  0  0  0  0
 25 26  1  0  0  0  0
 25 24  1  0  0  0  0
 26 27  1  0  0  0  0
 27 28  1  0  0  0  0
 28 29  1  0  0  0  0
 29 33  1  0  0  0  0
 30 32  1  0  0  0  0
 30 29  1  0  0  0  0
 31 30  2  0  0  0  0
 32 36  1  0  0  0  0
 34 31  1  0  0  0  0
 35 31  1  0  0  0  0
 37 32  1  0  0  0  0
M  END
>  <MODEL>
5

>  <REMARK>
 VINA RESULT:    -6.742      4.273     10.112
 INTER + INTRA:         -15.489
 INTER:                 -12.095
 INTRA:                  -3.393
 UNBOUND:                -1.651
  Name = CHEMBL5268706
  20 active torsions:
  status: ('A' for Active; 'I' for Inactive)
    1  A    between atoms: C_1  and  C_2
    2  A    between atoms: C_2  and  C_3
    3  A    between atoms: C_3  and  C_4
    4  A    between atoms: C_4  and  C_5
    5  A    between atoms: C_5  and  C_6
    6  A    between atoms: C_6  and  C_7
    7  A    between atoms: C_7  and  C_8
    8  A    between atoms: C_8  and  C_9
    9  A    between atoms: N_11  and  C_12
   10  A    between atoms: C_12  and  C_13
   11  A    between atoms: C_16  and  O_17
   12  A    between atoms: O_17  and  C_18
   13  A    between atoms: C_18  and  C_19
   14  A    between atoms: C_19  and  C_20
   15  A    between atoms: C_20  and  C_21
   16  A    between atoms: C_21  and  C_22
   17  A    between atoms: C_22  and  C_23
   18  A    between atoms: C_23  and  N_24
   19  A    between atoms: C_28  and  O_29
   20  A    between atoms: O_29  and  C_30
                            x       y       z     vdW  Elec       q    Type
                         _______ _______ _______ _____ _____    ______ ____

>  <TORSDO>
F 18

>  <SCORE>
-6.742

>  <RMSD_LB>
4.273

>  <RMSD_UB>
10.112

$$$$
CHEMBL5268706
 OpenBabel10172500433D

 37 37  0  0  0  0  0  0  0  0999 V2000
  140.7770  138.3790  153.7300 C   0  0  0  0  0  0  0  0  0  0  0  0
  140.8310  138.1480  152.3520 C   0  0  0  0  0  3  0  0  0  0  0  0
  139.6850  137.7630  151.6470 C   0  0  0  0  0  3  0  0  0  0  0  0
  138.4660  137.5880  152.3080 C   0  0  0  0  0  0  0  0  0  0  0  0
  138.4080  137.7880  153.6960 C   0  0  0  0  0  0  0  0  0  0  0  0
  139.5480  138.2200  154.3900 C   0  0  0  0  0  3  0  0  0  0  0  0
  137.2870  137.6220  154.4740 O   0  0  0  0  0  0  0  0  0  0  0  0
  137.3710  138.2260  155.7650 C   0  0  0  0  0  1  0  0  0  0  0  0
  142.0210  138.7610  154.4840 C   0  0  0  0  0  2  0  0  0  0  0  0
  144.2350  138.0080  153.7950 C   0  0  0  0  0  0  0  0  0  0  0  0
  144.4980  139.1080  153.3050 O   0  0  0  0  0  0  0  0  0  0  0  0
  143.0410  137.7440  154.4320 N   0  0  0  0  0  0  0  0  0  0  0  0
  142.8870  136.8650  154.8480 H   0  0  0  0  0  0  0  0  0  0  0  0
  145.2210  136.8610  153.7540 C   0  0  0  0  0  2  0  0  0  0  0  0
  146.6570  137.3500  153.6150 C   0  0  0  0  0  2  0  0  0  0  0  0
  147.3530  137.4240  154.9720 C   0  0  0  0  0  2  0  0  0  0  0  0
  147.8310  138.8480  155.2570 C   0  0  0  0  0  2  0  0  0  0  0  0
  147.9970  139.6520  153.9690 C   0  0  0  0  0  2  0  0  0  0  0  0
  147.5920  141.1100  154.1860 C   0  0  0  0  0  2  0  0  0  0  0  0
  146.0990  142.2760  152.5310 C   0  0  0  0  0  1  0  0  0  0  0  0
  147.5260  141.8720  152.8640 C   0  0  0  0  0  2  0  0  0  0  0  0
  137.2920  137.3330  151.6490 O   0  0  0  0  0  0  0  0  0  0  0  0
  137.3590  137.2330  150.2290 C   0  0  0  0  0  2  0  0  0  0  0  0
  136.6510  135.9410  149.8220 C   0  0  0  0  0  2  0  0  0  0  0  0
  135.2990  136.2350  149.1740 C   0  0  0  0  0  2  0  0  0  0  0  0
  134.4220  134.9860  149.1210 C   0  0  0  0  0  2  0  0  0  0  0  0
  133.3520  134.9970  150.2190 C   0  0  0  0  0  2  0  0  0  0  0  0
  133.7730  134.0980  151.3830 C   0  0  0  0  0  2  0  0  0  0  0  0
  133.3340  134.6360  152.6530 N   0  0  0  0  0  0  0  0  0  0  0  0
  134.1190  135.3750  153.4750 C   0  0  0  0  0  0  0  0  0  0  0  0
  135.2560  135.8920  153.1980 N   0  0  0  0  0  4  0  0  0  0  0  0
  133.6050  135.5450  154.7030 N   0  0  0  0  0  0  0  0  0  0  0  0
  132.4090  134.4540  152.9370 H   0  0  0  0  0  0  0  0  0  0  0  0
  135.6440  135.7750  152.3010 H   0  0  0  0  0  0  0  0  0  0  0  0
  135.7420  136.4070  153.8810 H   0  0  0  0  0  0  0  0  0  0  0  0
  132.7300  135.1520  154.9300 H   0  0  0  0  0  0  0  0  0  0  0  0
  134.1010  136.0630  155.3780 H   0  0  0  0  0  0  0  0  0  0  0  0
  1  6  1  0  0  0  0
  1  9  1  0  0  0  0
  2  1  2  0  0  0  0
  3  4  2  0  0  0  0
  3  2  1  0  0  0  0
  4  5  1  0  0  0  0
  5  6  2  0  0  0  0
  5  7  1  0  0  0  0
  7  8  1  0  0  0  0
 10 12  1  0  0  0  0
 11 10  2  0  0  0  0
 12  9  1  0  0  0  0
 12 13  1  0  0  0  0
 14 10  1  0  0  0  0
 15 14  1  0  0  0  0
 15 16  1  0  0  0  0
 16 17  1  0  0  0  0
 18 19  1  0  0  0  0
 18 17  1  0  0  0  0
 20 21  1  0  0  0  0
 21 19  1  0  0  0  0
 22  4  1  0  0  0  0
 23 22  1  0  0  0  0
 24 23  1  0  0  0  0
 25 24  1  0  0  0  0
 26 25  1  0  0  0  0
 26 27  1  0  0  0  0
 27 28  1  0  0  0  0
 28 29  1  0  0  0  0
 29 33  1  0  0  0  0
 29 30  1  0  0  0  0
 30 32  1  0  0  0  0
 31 30  2  0  0  0  0
 31 35  1  0  0  0  0
 32 36  1  0  0  0  0
 32 37  1  0  0  0  0
 34 31  1  0  0  0  0
M  END
>  <MODEL>
6

>  <REMARK>
 VINA RESULT:    -6.717      3.344      9.853
 INTER + INTRA:         -15.437
 INTER:                 -13.355
 INTRA:                  -2.082
 UNBOUND:                -1.651
  Name = CHEMBL5268706
  20 active torsions:
  status: ('A' for Active; 'I' for Inactive)
    1  A    between atoms: C_1  and  C_2
    2  A    between atoms: C_2  and  C_3
    3  A    between atoms: C_3  and  C_4
    4  A    between atoms: C_4  and  C_5
    5  A    between atoms: C_5  and  C_6
    6  A    between atoms: C_6  and  C_7
    7  A    between atoms: C_7  and  C_8
    8  A    between atoms: C_8  and  C_9
    9  A    between atoms: N_11  and  C_12
   10  A    between atoms: C_12  and  C_13
   11  A    between atoms: C_16  and  O_17
   12  A    between atoms: O_17  and  C_18
   13  A    between atoms: C_18  and  C_19
   14  A    between atoms: C_19  and  C_20
   15  A    between atoms: C_20  and  C_21
   16  A    between atoms: C_21  and  C_22
   17  A    between atoms: C_22  and  C_23
   18  A    between atoms: C_23  and  N_24
   19  A    between atoms: C_28  and  O_29
   20  A    between atoms: O_29  and  C_30
                            x       y       z     vdW  Elec       q    Type
                         _______ _______ _______ _____ _____    ______ ____

>  <TORSDO>
F 18

>  <SCORE>
-6.717

>  <RMSD_LB>
3.344

>  <RMSD_UB>
9.853

$$$$
CHEMBL5268706
 OpenBabel10172500433D

 37 37  0  0  0  0  0  0  0  0999 V2000
  141.1800  138.3080  153.7340 C   0  0  0  0  0  0  0  0  0  0  0  0
  140.6110  138.3850  155.0080 C   0  0  0  0  0  3  0  0  0  0  0  0
  139.2450  138.1460  155.1960 C   0  0  0  0  0  3  0  0  0  0  0  0
  138.4190  137.8380  154.1100 C   0  0  0  0  0  0  0  0  0  0  0  0
  138.9760  137.7870  152.8230 C   0  0  0  0  0  0  0  0  0  0  0  0
  140.3540  137.9810  152.6470 C   0  0  0  0  0  3  0  0  0  0  0  0
  138.2780  137.5260  151.6680 O   0  0  0  0  0  0  0  0  0  0  0  0
  138.4380  138.5120  150.6470 C   0  0  0  0  0  1  0  0  0  0  0  0
  142.6430  138.5990  153.5390 C   0  0  0  0  0  2  0  0  0  0  0  0
  143.6810  139.3740  151.4740 C   0  0  0  0  0  0  0  0  0  0  0  0
  144.1650  138.2620  151.2560 O   0  0  0  0  0  0  0  0  0  0  0  0
  142.8830  139.6360  152.5670 N   0  0  0  0  0  0  0  0  0  0  0  0
  142.4790  140.5270  152.6820 H   0  0  0  0  0  0  0  0  0  0  0  0
  143.9090  140.5400  150.5370 C   0  0  0  0  0  2  0  0  0  0  0  0
  144.8400  140.1750  149.3890 C   0  0  0  0  0  2  0  0  0  0  0  0
  146.2900  140.5250  149.7160 C   0  0  0  0  0  2  0  0  0  0  0  0
  146.4660  142.0390  149.8370 C   0  0  0  0  0  2  0  0  0  0  0  0
  147.6880  142.3960  150.6810 C   0  0  0  0  0  2  0  0  0  0  0  0
  147.3790  142.2450  152.1700 C   0  0  0  0  0  2  0  0  0  0  0  0
  148.6310  141.8320  154.3130 C   0  0  0  0  0  1  0  0  0  0  0  0
  148.4310  141.3880  152.8730 C   0  0  0  0  0  2  0  0  0  0  0  0
  137.1060  137.4750  154.2540 O   0  0  0  0  0  0  0  0  0  0  0  0
  136.7980  136.5760  155.3160 C   0  0  0  0  0  2  0  0  0  0  0  0
  135.7790  135.5670  154.7890 C   0  0  0  0  0  2  0  0  0  0  0  0
  135.7040  135.6060  153.2640 C   0  0  0  0  0  2  0  0  0  0  0  0
  135.7500  134.2010  152.6660 C   0  0  0  0  0  2  0  0  0  0  0  0
  135.1950  134.1740  151.2370 C   0  0  0  0  0  2  0  0  0  0  0  0
  133.6800  133.9680  151.2570 C   0  0  0  0  0  2  0  0  0  0  0  0
  132.9740  135.2160  151.0570 N   0  0  0  0  0  0  0  0  0  0  0  0
  132.8090  135.8070  149.8480 C   0  0  0  0  0  0  0  0  0  0  0  0
  133.0390  135.2940  148.7000 N   0  0  0  0  0  4  0  0  0  0  0  0
  132.3610  137.0710  149.9220 N   0  0  0  0  0  0  0  0  0  0  0  0
  132.5900  135.6620  151.8470 H   0  0  0  0  0  0  0  0  0  0  0  0
  133.3670  134.3680  148.6310 H   0  0  0  0  0  0  0  0  0  0  0  0
  132.8870  135.8240  147.8840 H   0  0  0  0  0  0  0  0  0  0  0  0
  132.1800  137.4790  150.8010 H   0  0  0  0  0  0  0  0  0  0  0  0
  132.2130  137.5900  149.0990 H   0  0  0  0  0  0  0  0  0  0  0  0
  1  2  1  0  0  0  0
  2  3  2  0  0  0  0
  4 22  1  0  0  0  0
  4  3  1  0  0  0  0
  5  4  2  0  0  0  0
  6  5  1  0  0  0  0
  6  1  2  0  0  0  0
  7  5  1  0  0  0  0
  8  7  1  0  0  0  0
  9  1  1  0  0  0  0
 10 12  1  0  0  0  0
 11 10  2  0  0  0  0
 12 13  1  0  0  0  0
 12  9  1  0  0  0  0
 14 10  1  0  0  0  0
 15 16  1  0  0  0  0
 15 14  1  0  0  0  0
 16 17  1  0  0  0  0
 17 18  1  0  0  0  0
 18 19  1  0  0  0  0
 19 21  1  0  0  0  0
 21 20  1  0  0  0  0
 22 23  1  0  0  0  0
 24 23  1  0  0  0  0
 25 24  1  0  0  0  0
 26 25  1  0  0  0  0
 27 28  1  0  0  0  0
 27 26  1  0  0  0  0
 29 28  1  0  0  0  0
 29 33  1  0  0  0  0
 30 32  1  0  0  0  0
 30 29  1  0  0  0  0
 31 30  2  0  0  0  0
 32 36  1  0  0  0  0
 34 31  1  0  0  0  0
 35 31  1  0  0  0  0
 37 32  1  0  0  0  0
M  END
>  <MODEL>
7

>  <REMARK>
 VINA RESULT:    -6.662      3.613      9.909
 INTER + INTRA:         -15.324
 INTER:                 -14.027
 INTRA:                  -1.296
 UNBOUND:                -1.651
  Name = CHEMBL5268706
  20 active torsions:
  status: ('A' for Active; 'I' for Inactive)
    1  A    between atoms: C_1  and  C_2
    2  A    between atoms: C_2  and  C_3
    3  A    between atoms: C_3  and  C_4
    4  A    between atoms: C_4  and  C_5
    5  A    between atoms: C_5  and  C_6
    6  A    between atoms: C_6  and  C_7
    7  A    between atoms: C_7  and  C_8
    8  A    between atoms: C_8  and  C_9
    9  A    between atoms: N_11  and  C_12
   10  A    between atoms: C_12  and  C_13
   11  A    between atoms: C_16  and  O_17
   12  A    between atoms: O_17  and  C_18
   13  A    between atoms: C_18  and  C_19
   14  A    between atoms: C_19  and  C_20
   15  A    between atoms: C_20  and  C_21
   16  A    between atoms: C_21  and  C_22
   17  A    between atoms: C_22  and  C_23
   18  A    between atoms: C_23  and  N_24
   19  A    between atoms: C_28  and  O_29
   20  A    between atoms: O_29  and  C_30
                            x       y       z     vdW  Elec       q    Type
                         _______ _______ _______ _____ _____    ______ ____

>  <TORSDO>
F 18

>  <SCORE>
-6.662

>  <RMSD_LB>
3.613

>  <RMSD_UB>
9.909

$$$$
CHEMBL5268706
 OpenBabel10172500433D

 37 37  0  0  0  0  0  0  0  0999 V2000
  142.6020  137.8100  152.6610 C   0  0  0  0  0  0  0  0  0  0  0  0
  141.3430  137.6910  152.0660 C   0  0  0  0  0  3  0  0  0  0  0  0
  140.1930  138.1270  152.7340 C   0  0  0  0  0  3  0  0  0  0  0  0
  140.2790  138.6780  154.0170 C   0  0  0  0  0  0  0  0  0  0  0  0
  141.5360  138.7750  154.6340 C   0  0  0  0  0  0  0  0  0  0  0  0
  142.6900  138.3800  153.9410 C   0  0  0  0  0  3  0  0  0  0  0  0
  141.7610  139.2670  155.8970 O   0  0  0  0  0  0  0  0  0  0  0  0
  142.9700  140.0150  156.0320 C   0  0  0  0  0  1  0  0  0  0  0  0
  143.8270  137.3080  151.9470 C   0  0  0  0  0  2  0  0  0  0  0  0
  144.7960  139.1160  150.6310 C   0  0  0  0  0  0  0  0  0  0  0  0
  143.9120  139.0200  149.7780 O   0  0  0  0  0  0  0  0  0  0  0  0
  144.8260  138.3310  151.7630 N   0  0  0  0  0  0  0  0  0  0  0  0
  145.5270  138.4680  152.4420 H   0  0  0  0  0  0  0  0  0  0  0  0
  145.9150  140.1290  150.5090 C   0  0  0  0  0  2  0  0  0  0  0  0
  145.4090  141.4790  150.0190 C   0  0  0  0  0  2  0  0  0  0  0  0
  145.7180  142.5870  151.0250 C   0  0  0  0  0  2  0  0  0  0  0  0
  146.8980  142.1940  151.9150 C   0  0  0  0  0  2  0  0  0  0  0  0
  146.5080  142.1870  153.3910 C   0  0  0  0  0  2  0  0  0  0  0  0
  147.5700  141.4740  154.2280 C   0  0  0  0  0  2  0  0  0  0  0  0
  148.4200  139.1880  153.6150 C   0  0  0  0  0  1  0  0  0  0  0  0
  147.3090  139.9710  154.2960 C   0  0  0  0  0  2  0  0  0  0  0  0
  139.2050  139.2320  154.6630 O   0  0  0  0  0  0  0  0  0  0  0  0
  138.0640  138.3980  154.8470 C   0  0  0  0  0  2  0  0  0  0  0  0
  138.4350  137.3260  155.8700 C   0  0  0  0  0  2  0  0  0  0  0  0
  137.5000  136.1210  155.7690 C   0  0  0  0  0  2  0  0  0  0  0  0
  136.0420  136.5250  155.9790 C   0  0  0  0  0  2  0  0  0  0  0  0
  135.1070  135.3110  155.9540 C   0  0  0  0  0  2  0  0  0  0  0  0
  135.0740  134.6920  154.5550 C   0  0  0  0  0  2  0  0  0  0  0  0
  134.4160  135.5640  153.6060 N   0  0  0  0  0  0  0  0  0  0  0  0
  133.8170  135.1320  152.4690 C   0  0  0  0  0  0  0  0  0  0  0  0
  133.5440  133.9230  152.1520 N   0  0  0  0  0  0  0  0  0  0  0  0
  133.5050  136.1190  151.6130 N   0  0  0  0  0  4  0  0  0  0  0  0
  134.4020  136.5300  153.7970 H   0  0  0  0  0  0  0  0  0  0  0  0
  133.7670  133.1900  152.7700 H   0  0  0  0  0  0  0  0  0  0  0  0
  133.1100  133.7260  151.2900 H   0  0  0  0  0  0  0  0  0  0  0  0
  133.7100  137.0540  151.8450 H   0  0  0  0  0  0  0  0  0  0  0  0
  133.0710  135.9080  150.7550 H   0  0  0  0  0  0  0  0  0  0  0  0
  1  6  1  0  0  0  0
  2  1  2  0  0  0  0
  2  3  1  0  0  0  0
  3  4  2  0  0  0  0
  4  5  1  0  0  0  0
  4 22  1  0  0  0  0
  5  7  1  0  0  0  0
  6  5  2  0  0  0  0
  7  8  1  0  0  0  0
  9  1  1  0  0  0  0
 10 12  1  0  0  0  0
 11 10  2  0  0  0  0
 12  9  1  0  0  0  0
 12 13  1  0  0  0  0
 14 10  1  0  0  0  0
 15 14  1  0  0  0  0
 15 16  1  0  0  0  0
 16 17  1  0  0  0  0
 17 18  1  0  0  0  0
 18 19  1  0  0  0  0
 19 21  1  0  0  0  0
 20 21  1  0  0  0  0
 22 23  1  0  0  0  0
 23 24  1  0  0  0  0
 25 24  1  0  0  0  0
 25 26  1  0  0  0  0
 27 26  1  0  0  0  0
 28 27  1  0  0  0  0
 29 33  1  0  0  0  0
 29 28  1  0  0  0  0
 30 29  1  0  0  0  0
 31 30  1  0  0  0  0
 31 34  1  0  0  0  0
 32 36  1  0  0  0  0
 32 30  2  0  0  0  0
 35 31  1  0  0  0  0
 37 32  1  0  0  0  0
M  END
>  <MODEL>
8

>  <REMARK>
 VINA RESULT:    -6.661      3.355     10.002
 INTER + INTRA:         -15.321
 INTER:                 -13.670
 INTRA:                  -1.651
 UNBOUND:                -1.651
  Name = CHEMBL5268706
  20 active torsions:
  status: ('A' for Active; 'I' for Inactive)
    1  A    between atoms: C_1  and  C_2
    2  A    between atoms: C_2  and  C_3
    3  A    between atoms: C_3  and  C_4
    4  A    between atoms: C_4  and  C_5
    5  A    between atoms: C_5  and  C_6
    6  A    between atoms: C_6  and  C_7
    7  A    between atoms: C_7  and  C_8
    8  A    between atoms: C_8  and  C_9
    9  A    between atoms: N_11  and  C_12
   10  A    between atoms: C_12  and  C_13
   11  A    between atoms: C_16  and  O_17
   12  A    between atoms: O_17  and  C_18
   13  A    between atoms: C_18  and  C_19
   14  A    between atoms: C_19  and  C_20
   15  A    between atoms: C_20  and  C_21
   16  A    between atoms: C_21  and  C_22
   17  A    between atoms: C_22  and  C_23
   18  A    between atoms: C_23  and  N_24
   19  A    between atoms: C_28  and  O_29
   20  A    between atoms: O_29  and  C_30
                            x       y       z     vdW  Elec       q    Type
                         _______ _______ _______ _____ _____    ______ ____

>  <TORSDO>
F 18

>  <SCORE>
-6.661

>  <RMSD_LB>
3.355

>  <RMSD_UB>
10.002

$$$$
CHEMBL5268706
 OpenBabel10172500433D

 37 37  0  0  0  0  0  0  0  0999 V2000
  141.9460  137.4210  151.7210 C   0  0  0  0  0  0  0  0  0  0  0  0
  142.2250  137.9220  152.9960 C   0  0  0  0  0  3  0  0  0  0  0  0
  141.1940  138.3750  153.8260 C   0  0  0  0  0  3  0  0  0  0  0  0
  139.8650  138.3490  153.3920 C   0  0  0  0  0  0  0  0  0  0  0  0
  139.5780  137.8750  152.1040 C   0  0  0  0  0  0  0  0  0  0  0  0
  140.6100  137.3780  151.2930 C   0  0  0  0  0  3  0  0  0  0  0  0
  138.3250  137.8210  151.5400 O   0  0  0  0  0  0  0  0  0  0  0  0
  138.2300  138.4350  150.2540 C   0  0  0  0  0  1  0  0  0  0  0  0
  143.0650  136.9660  150.8240 C   0  0  0  0  0  2  0  0  0  0  0  0
  145.4660  137.2810  151.0950 C   0  0  0  0  0  0  0  0  0  0  0  0
  145.6550  136.0660  151.1780 O   0  0  0  0  0  0  0  0  0  0  0  0
  144.2180  137.8280  150.8880 N   0  0  0  0  0  0  0  0  0  0  0  0
  144.1160  138.8020  150.7840 H   0  0  0  0  0  0  0  0  0  0  0  0
  146.6060  138.2730  151.1930 C   0  0  0  0  0  2  0  0  0  0  0  0
  147.2530  138.2620  152.5710 C   0  0  0  0  0  2  0  0  0  0  0  0
  147.3250  139.6690  153.1630 C   0  0  0  0  0  2  0  0  0  0  0  0
  148.2790  140.5470  152.3530 C   0  0  0  0  0  2  0  0  0  0  0  0
  147.7880  141.9920  152.2820 C   0  0  0  0  0  2  0  0  0  0  0  0
  146.2720  142.0570  152.4710 C   0  0  0  0  0  2  0  0  0  0  0  0
  146.5220  142.6020  150.0280 C   0  0  0  0  0  1  0  0  0  0  0  0
  145.5780  142.5880  151.2190 C   0  0  0  0  0  2  0  0  0  0  0  0
  138.8100  138.6640  154.2070 O   0  0  0  0  0  0  0  0  0  0  0  0
  138.7060  137.9460  155.4340 C   0  0  0  0  0  2  0  0  0  0  0  0
  137.2300  137.6230  155.6580 C   0  0  0  0  0  2  0  0  0  0  0  0
  136.8880  136.2230  155.1520 C   0  0  0  0  0  2  0  0  0  0  0  0
  135.4950  135.7900  155.6020 C   0  0  0  0  0  2  0  0  0  0  0  0
  134.9800  134.5970  154.7880 C   0  0  0  0  0  2  0  0  0  0  0  0
  134.9310  134.9490  153.3000 C   0  0  0  0  0  2  0  0  0  0  0  0
  133.7970  134.3290  152.6470 N   0  0  0  0  0  0  0  0  0  0  0  0
  133.2000  134.8240  151.5350 C   0  0  0  0  0  0  0  0  0  0  0  0
  133.6380  135.7520  150.7720 N   0  0  0  0  0  4  0  0  0  0  0  0
  132.0200  134.2480  151.2540 N   0  0  0  0  0  0  0  0  0  0  0  0
  133.4370  133.4980  153.0350 H   0  0  0  0  0  0  0  0  0  0  0  0
  134.5020  136.1830  150.9660 H   0  0  0  0  0  0  0  0  0  0  0  0
  133.1120  136.0350  149.9890 H   0  0  0  0  0  0  0  0  0  0  0  0
  131.6710  133.5320  151.8340 H   0  0  0  0  0  0  0  0  0  0  0  0
  131.5040  134.5400  150.4680 H   0  0  0  0  0  0  0  0  0  0  0  0
  1  2  1  0  0  0  0
  2  3  2  0  0  0  0
  4  3  1  0  0  0  0
  4 22  1  0  0  0  0
  5  4  2  0  0  0  0
  6  1  2  0  0  0  0
  6  5  1  0  0  0  0
  7  5  1  0  0  0  0
  8  7  1  0  0  0  0
  9 12  1  0  0  0  0
  9  1  1  0  0  0  0
 10 11  2  0  0  0  0
 10 14  1  0  0  0  0
 12 10  1  0  0  0  0
 13 12  1  0  0  0  0
 14 15  1  0  0  0  0
 15 16  1  0  0  0  0
 17 16  1  0  0  0  0
 18 17  1  0  0  0  0
 18 19  1  0  0  0  0
 20 21  1  0  0  0  0
 21 19  1  0  0  0  0
 22 23  1  0  0  0  0
 23 24  1  0  0  0  0
 25 26  1  0  0  0  0
 25 24  1  0  0  0  0
 27 26  1  0  0  0  0
 28 27  1  0  0  0  0
 29 33  1  0  0  0  0
 29 28  1  0  0  0  0
 30 29  1  0  0  0  0
 31 34  1  0  0  0  0
 31 30  2  0  0  0  0
 32 30  1  0  0  0  0
 32 36  1  0  0  0  0
 35 31  1  0  0  0  0
 37 32  1  0  0  0  0
M  END
>  <MODEL>
9

>  <REMARK>
 VINA RESULT:    -6.611      3.554      9.935
 INTER + INTRA:         -15.218
 INTER:                 -13.750
 INTRA:                  -1.468
 UNBOUND:                -1.651
  Name = CHEMBL5268706
  20 active torsions:
  status: ('A' for Active; 'I' for Inactive)
    1  A    between atoms: C_1  and  C_2
    2  A    between atoms: C_2  and  C_3
    3  A    between atoms: C_3  and  C_4
    4  A    between atoms: C_4  and  C_5
    5  A    between atoms: C_5  and  C_6
    6  A    between atoms: C_6  and  C_7
    7  A    between atoms: C_7  and  C_8
    8  A    between atoms: C_8  and  C_9
    9  A    between atoms: N_11  and  C_12
   10  A    between atoms: C_12  and  C_13
   11  A    between atoms: C_16  and  O_17
   12  A    between atoms: O_17  and  C_18
   13  A    between atoms: C_18  and  C_19
   14  A    between atoms: C_19  and  C_20
   15  A    between atoms: C_20  and  C_21
   16  A    between atoms: C_21  and  C_22
   17  A    between atoms: C_22  and  C_23
   18  A    between atoms: C_23  and  N_24
   19  A    between atoms: C_28  and  O_29
   20  A    between atoms: O_29  and  C_30
                            x       y       z     vdW  Elec       q    Type
                         _______ _______ _______ _____ _____    ______ ____

>  <TORSDO>
F 18

>  <SCORE>
-6.611

>  <RMSD_LB>
3.554

>  <RMSD_UB>
9.935

$$$$
