CHEMBL3457007
 OpenBabel10172500253D

 22 23  0  0  0  0  0  0  0  0999 V2000
  135.2580  135.0300  151.4120 C   0  0  0  0  0  2  0  0  0  0  0  0
  134.4420  134.9510  152.6080 N   0  0  0  0  0  0  0  0  0  0  0  0
  135.0100  134.9840  153.8600 C   0  0  0  0  0  0  0  0  0  0  0  0
  136.2180  135.0980  154.0090 O   0  0  0  0  0  0  0  0  0  0  0  0
  134.0820  134.8440  154.8580 N   0  0  0  0  0  0  0  0  0  0  0  0
  134.3700  134.8780  156.2030 C   0  0  0  0  0  0  0  0  0  0  0  0
  133.5610  134.3890  157.1190 N   0  0  0  0  0  0  0  0  0  0  0  0
  134.0810  134.5200  158.3940 N   0  0  0  0  0  0  0  0  0  0  0  0
  135.2380  135.1470  158.3840 C   0  0  0  0  0  3  0  0  0  0  0  0
  135.7660  135.6370  156.8320 S   0  0  0  0  0  0  0  0  0  0  0  0
  133.4640  134.8730  152.5220 H   0  0  0  0  0  0  0  0  0  0  0  0
  133.1430  134.7080  154.5940 H   0  0  0  0  0  0  0  0  0  0  0  0
  133.5930  134.9940  147.9560 C   0  0  0  0  0  0  0  0  0  0  0  0
  134.1740  135.4470  149.1460 C   0  0  0  0  0  3  0  0  0  0  0  0
  134.5600  134.5480  150.1600 C   0  0  0  0  0  0  0  0  0  0  0  0
  134.3610  133.1760  149.9520 C   0  0  0  0  0  3  0  0  0  0  0  0
  133.7860  132.7090  148.7690 C   0  0  0  0  0  3  0  0  0  0  0  0
  133.4020  133.6170  147.7820 C   0  0  0  0  0  0  0  0  0  0  0  0
  132.5460  137.0140  147.2410 C   0  0  0  0  0  1  0  0  0  0  0  0
  133.1960  135.7940  146.9160 O   0  0  0  0  0  0  0  0  0  0  0  0
  132.8390  133.1580  146.6200 O   0  0  0  0  0  0  0  0  0  0  0  0
  132.8080  132.2380  146.4470 H   0  0  0  0  0  0  0  0  0  0  0  0
  1  2  1  0  0  0  0
  2  3  1  0  0  0  0
  3  4  2  0  0  0  0
  3  5  1  0  0  0  0
  5  6  1  0  0  0  0
  6 10  1  0  0  0  0
  6  7  2  0  0  0  0
  7  8  1  0  0  0  0
  9  8  2  0  0  0  0
 10  9  1  0  0  0  0
 11  2  1  0  0  0  0
 12  5  1  0  0  0  0
 13 14  1  0  0  0  0
 14 15  2  0  0  0  0
 15  1  1  0  0  0  0
 16 15  1  0  0  0  0
 17 16  2  0  0  0  0
 18 13  2  0  0  0  0
 18 17  1  0  0  0  0
 20 19  1  0  0  0  0
 20 13  1  0  0  0  0
 21 18  1  0  0  0  0
 22 21  1  0  0  0  0
M  END
>  <MODEL>
1

>  <REMARK>
 VINA RESULT:    -6.548      0.000      0.000
 INTER + INTRA:          -8.113
 INTER:                  -7.899
 INTRA:                  -0.214
 UNBOUND:                -0.226
  Name = CHEMBL3457007
  5 active torsions:
  status: ('A' for Active; 'I' for Inactive)
    1  A    between atoms: C_1  and  O_2
    2  A    between atoms: O_2  and  C_3
    3  A    between atoms: C_5  and  C_6
    4  A    between atoms: C_6  and  N_7
    5  A    between atoms: C_18  and  O_19
                            x       y       z     vdW  Elec       q    Type
                         _______ _______ _______ _____ _____    ______ ____

>  <TORSDO>
F 4

>  <SCORE>
-6.548

>  <RMSD_LB>
0.000

>  <RMSD_UB>
0.000

$$$$
CHEMBL3457007
 OpenBabel10172500253D

 22 23  0  0  0  0  0  0  0  0999 V2000
  147.0250  142.5920  149.8560 C   0  0  0  0  0  2  0  0  0  0  0  0
  145.7510  141.9910  149.5120 N   0  0  0  0  0  0  0  0  0  0  0  0
  145.6860  140.7470  148.9290 C   0  0  0  0  0  0  0  0  0  0  0  0
  146.6960  140.0980  148.6990 O   0  0  0  0  0  0  0  0  0  0  0  0
  144.4010  140.3760  148.6320 N   0  0  0  0  0  0  0  0  0  0  0  0
  144.0450  139.1670  148.0790 C   0  0  0  0  0  0  0  0  0  0  0  0
  142.8930  138.9710  147.4740 N   0  0  0  0  0  0  0  0  0  0  0  0
  142.7780  137.6830  146.9810 N   0  0  0  0  0  0  0  0  0  0  0  0
  143.8310  136.9530  147.2820 C   0  0  0  0  0  3  0  0  0  0  0  0
  145.0220  137.7710  148.1980 S   0  0  0  0  0  0  0  0  0  0  0  0
  144.9180  142.4830  149.6980 H   0  0  0  0  0  0  0  0  0  0  0  0
  143.6820  141.0210  148.8260 H   0  0  0  0  0  0  0  0  0  0  0  0
  147.0510  141.4760  153.5270 C   0  0  0  0  0  0  0  0  0  0  0  0
  146.6010  141.8540  152.2570 C   0  0  0  0  0  3  0  0  0  0  0  0
  147.5030  142.2580  151.2520 C   0  0  0  0  0  0  0  0  0  0  0  0
  148.8740  142.2640  151.5440 C   0  0  0  0  0  3  0  0  0  0  0  0
  149.3370  141.8860  152.8050 C   0  0  0  0  0  3  0  0  0  0  0  0
  148.4260  141.4990  153.7880 C   0  0  0  0  0  0  0  0  0  0  0  0
  145.3760  139.9690  154.3110 C   0  0  0  0  0  1  0  0  0  0  0  0
  146.2480  141.0630  154.5580 O   0  0  0  0  0  0  0  0  0  0  0  0
  148.8820  141.1260  155.0250 O   0  0  0  0  0  0  0  0  0  0  0  0
  148.5020  141.5000  155.7960 H   0  0  0  0  0  0  0  0  0  0  0  0
  1 15  1  0  0  0  0
  2 11  1  0  0  0  0
  2  1  1  0  0  0  0
  3  2  1  0  0  0  0
  4  3  2  0  0  0  0
  5 12  1  0  0  0  0
  5  3  1  0  0  0  0
  6 10  1  0  0  0  0
  6  5  1  0  0  0  0
  7  6  2  0  0  0  0
  8  9  2  0  0  0  0
  8  7  1  0  0  0  0
  9 10  1  0  0  0  0
 13 18  1  0  0  0  0
 13 20  1  0  0  0  0
 14 13  2  0  0  0  0
 15 16  2  0  0  0  0
 15 14  1  0  0  0  0
 16 17  1  0  0  0  0
 17 18  2  0  0  0  0
 18 21  1  0  0  0  0
 19 20  1  0  0  0  0
 21 22  1  0  0  0  0
M  END
>  <MODEL>
2

>  <REMARK>
 VINA RESULT:    -6.464     12.902     15.177
 INTER + INTRA:          -8.013
 INTER:                  -7.670
 INTRA:                  -0.342
 UNBOUND:                -0.226
  Name = CHEMBL3457007
  5 active torsions:
  status: ('A' for Active; 'I' for Inactive)
    1  A    between atoms: C_1  and  O_2
    2  A    between atoms: O_2  and  C_3
    3  A    between atoms: C_5  and  C_6
    4  A    between atoms: C_6  and  N_7
    5  A    between atoms: C_18  and  O_19
                            x       y       z     vdW  Elec       q    Type
                         _______ _______ _______ _____ _____    ______ ____

>  <TORSDO>
F 4

>  <SCORE>
-6.464

>  <RMSD_LB>
12.902

>  <RMSD_UB>
15.177

$$$$
CHEMBL3457007
 OpenBabel10172500253D

 22 23  0  0  0  0  0  0  0  0999 V2000
  142.0030  139.0160  151.2050 C   0  0  0  0  0  2  0  0  0  0  0  0
  140.8340  139.4660  151.9370 N   0  0  0  0  0  0  0  0  0  0  0  0
  140.3600  138.7650  153.0210 C   0  0  0  0  0  0  0  0  0  0  0  0
  140.9170  137.7510  153.4170 O   0  0  0  0  0  0  0  0  0  0  0  0
  139.2210  139.3180  153.5420 N   0  0  0  0  0  0  0  0  0  0  0  0
  138.5580  138.8430  154.6510 C   0  0  0  0  0  0  0  0  0  0  0  0
  137.3050  139.1430  154.9170 N   0  0  0  0  0  0  0  0  0  0  0  0
  136.8560  138.5260  156.0710 N   0  0  0  0  0  0  0  0  0  0  0  0
  137.8100  137.8280  156.6490 C   0  0  0  0  0  3  0  0  0  0  0  0
  139.3190  137.8860  155.8450 S   0  0  0  0  0  0  0  0  0  0  0  0
  140.3720  140.2870  151.6510 H   0  0  0  0  0  0  0  0  0  0  0  0
  138.8490  140.1110  153.0910 H   0  0  0  0  0  0  0  0  0  0  0  0
  145.1260  140.2880  153.0350 C   0  0  0  0  0  0  0  0  0  0  0  0
  143.9210  139.6290  152.7640 C   0  0  0  0  0  3  0  0  0  0  0  0
  143.2630  139.7880  151.5280 C   0  0  0  0  0  0  0  0  0  0  0  0
  143.8460  140.6160  150.5580 C   0  0  0  0  0  3  0  0  0  0  0  0
  145.0480  141.2760  150.8140 C   0  0  0  0  0  3  0  0  0  0  0  0
  145.6780  141.1130  152.0480 C   0  0  0  0  0  0  0  0  0  0  0  0
  146.4400  138.9330  154.4940 C   0  0  0  0  0  1  0  0  0  0  0  0
  145.8360  140.1850  154.2020 O   0  0  0  0  0  0  0  0  0  0  0  0
  146.8600  141.7610  152.2970 O   0  0  0  0  0  0  0  0  0  0  0  0
  147.5510  141.7320  151.6650 H   0  0  0  0  0  0  0  0  0  0  0  0
  1 15  1  0  0  0  0
  1  2  1  0  0  0  0
  2  3  1  0  0  0  0
  3  4  2  0  0  0  0
  3  5  1  0  0  0  0
  5  6  1  0  0  0  0
  6  7  2  0  0  0  0
  6 10  1  0  0  0  0
  7  8  1  0  0  0  0
  8  9  2  0  0  0  0
 10  9  1  0  0  0  0
 11  2  1  0  0  0  0
 12  5  1  0  0  0  0
 13 20  1  0  0  0  0
 14 13  1  0  0  0  0
 15 14  2  0  0  0  0
 16 17  2  0  0  0  0
 16 15  1  0  0  0  0
 17 18  1  0  0  0  0
 18 21  1  0  0  0  0
 18 13  2  0  0  0  0
 20 19  1  0  0  0  0
 22 21  1  0  0  0  0
M  END
>  <MODEL>
3

>  <REMARK>
 VINA RESULT:    -6.447      8.820     10.670
 INTER + INTRA:          -7.991
 INTER:                  -7.639
 INTRA:                  -0.353
 UNBOUND:                -0.226
  Name = CHEMBL3457007
  5 active torsions:
  status: ('A' for Active; 'I' for Inactive)
    1  A    between atoms: C_1  and  O_2
    2  A    between atoms: O_2  and  C_3
    3  A    between atoms: C_5  and  C_6
    4  A    between atoms: C_6  and  N_7
    5  A    between atoms: C_18  and  O_19
                            x       y       z     vdW  Elec       q    Type
                         _______ _______ _______ _____ _____    ______ ____

>  <TORSDO>
F 4

>  <SCORE>
-6.447

>  <RMSD_LB>
8.820

>  <RMSD_UB>
10.670

$$$$
CHEMBL3457007
 OpenBabel10172500253D

 22 23  0  0  0  0  0  0  0  0999 V2000
  135.9200  135.7730  150.1180 C   0  0  0  0  0  2  0  0  0  0  0  0
  135.1460  135.1010  149.0930 N   0  0  0  0  0  0  0  0  0  0  0  0
  135.7590  134.3580  148.1110 C   0  0  0  0  0  0  0  0  0  0  0  0
  136.9740  134.2250  148.0790 O   0  0  0  0  0  0  0  0  0  0  0  0
  134.8660  133.8480  147.2070 N   0  0  0  0  0  0  0  0  0  0  0  0
  135.2030  133.0390  146.1460 C   0  0  0  0  0  0  0  0  0  0  0  0
  134.4180  132.8630  145.1050 N   0  0  0  0  0  0  0  0  0  0  0  0
  134.9860  132.0260  144.1610 N   0  0  0  0  0  0  0  0  0  0  0  0
  136.1550  131.5700  144.5590 C   0  0  0  0  0  3  0  0  0  0  0  0
  136.6360  132.1090  146.1100 S   0  0  0  0  0  0  0  0  0  0  0  0
  134.1640  135.1780  149.0990 H   0  0  0  0  0  0  0  0  0  0  0  0
  133.9150  134.0770  147.3250 H   0  0  0  0  0  0  0  0  0  0  0  0
  135.4400  135.8660  153.9240 C   0  0  0  0  0  0  0  0  0  0  0  0
  135.8480  136.2010  152.6270 C   0  0  0  0  0  3  0  0  0  0  0  0
  135.5480  135.3730  151.5280 C   0  0  0  0  0  0  0  0  0  0  0  0
  134.8150  134.1980  151.7540 C   0  0  0  0  0  3  0  0  0  0  0  0
  134.3990  133.8530  153.0400 C   0  0  0  0  0  3  0  0  0  0  0  0
  134.7160  134.6830  154.1150 C   0  0  0  0  0  0  0  0  0  0  0  0
  137.0130  137.0550  155.2660 C   0  0  0  0  0  1  0  0  0  0  0  0
  135.6810  136.6150  155.0460 O   0  0  0  0  0  0  0  0  0  0  0  0
  134.3050  134.3440  155.3780 O   0  0  0  0  0  0  0  0  0  0  0  0
  133.4740  133.9310  155.5050 H   0  0  0  0  0  0  0  0  0  0  0  0
  1 15  1  0  0  0  0
  2 11  1  0  0  0  0
  2  1  1  0  0  0  0
  3  2  1  0  0  0  0
  4  3  2  0  0  0  0
  5 12  1  0  0  0  0
  5  3  1  0  0  0  0
  6  5  1  0  0  0  0
  7  6  2  0  0  0  0
  8  9  2  0  0  0  0
  8  7  1  0  0  0  0
  9 10  1  0  0  0  0
 10  6  1  0  0  0  0
 13 18  1  0  0  0  0
 13 20  1  0  0  0  0
 14 13  2  0  0  0  0
 15 16  2  0  0  0  0
 15 14  1  0  0  0  0
 16 17  1  0  0  0  0
 17 18  2  0  0  0  0
 18 21  1  0  0  0  0
 20 19  1  0  0  0  0
 21 22  1  0  0  0  0
M  END
>  <MODEL>
4

>  <REMARK>
 VINA RESULT:    -6.296      4.825      8.288
 INTER + INTRA:          -7.810
 INTER:                  -7.517
 INTRA:                  -0.294
 UNBOUND:                -0.226
  Name = CHEMBL3457007
  5 active torsions:
  status: ('A' for Active; 'I' for Inactive)
    1  A    between atoms: C_1  and  O_2
    2  A    between atoms: O_2  and  C_3
    3  A    between atoms: C_5  and  C_6
    4  A    between atoms: C_6  and  N_7
    5  A    between atoms: C_18  and  O_19
                            x       y       z     vdW  Elec       q    Type
                         _______ _______ _______ _____ _____    ______ ____

>  <TORSDO>
F 4

>  <SCORE>
-6.296

>  <RMSD_LB>
4.825

>  <RMSD_UB>
8.288

$$$$
CHEMBL3457007
 OpenBabel10172500253D

 22 23  0  0  0  0  0  0  0  0999 V2000
  142.2590  138.6310  155.1130 C   0  0  0  0  0  2  0  0  0  0  0  0
  143.1190  139.7520  154.7870 N   0  0  0  0  0  0  0  0  0  0  0  0
  144.4570  139.5710  154.5290 C   0  0  0  0  0  0  0  0  0  0  0  0
  144.9640  138.4580  154.5470 O   0  0  0  0  0  0  0  0  0  0  0  0
  145.1090  140.7520  154.2950 N   0  0  0  0  0  0  0  0  0  0  0  0
  146.4430  140.8590  153.9750 C   0  0  0  0  0  0  0  0  0  0  0  0
  147.1230  141.9770  154.1120 N   0  0  0  0  0  0  0  0  0  0  0  0
  148.4490  141.8260  153.7470 N   0  0  0  0  0  0  0  0  0  0  0  0
  148.6950  140.6110  153.3040 C   0  0  0  0  0  3  0  0  0  0  0  0
  147.3340  139.5760  153.2820 S   0  0  0  0  0  0  0  0  0  0  0  0
  142.7370  140.6600  154.7510 H   0  0  0  0  0  0  0  0  0  0  0  0
  144.5860  141.5840  154.3620 H   0  0  0  0  0  0  0  0  0  0  0  0
  140.1690  137.6990  152.0330 C   0  0  0  0  0  0  0  0  0  0  0  0
  141.2620  137.9240  152.8790 C   0  0  0  0  0  3  0  0  0  0  0  0
  141.0890  138.4620  154.1700 C   0  0  0  0  0  0  0  0  0  0  0  0
  139.7890  138.7630  154.6030 C   0  0  0  0  0  3  0  0  0  0  0  0
  138.6910  138.5410  153.7710 C   0  0  0  0  0  3  0  0  0  0  0  0
  138.8850  138.0170  152.4930 C   0  0  0  0  0  0  0  0  0  0  0  0
  140.8110  137.9880  149.7540 C   0  0  0  0  0  1  0  0  0  0  0  0
  140.2440  137.1730  150.7700 O   0  0  0  0  0  0  0  0  0  0  0  0
  137.8060  137.7980  151.6780 O   0  0  0  0  0  0  0  0  0  0  0  0
  137.7100  138.2900  150.8860 H   0  0  0  0  0  0  0  0  0  0  0  0
  2  1  1  0  0  0  0
  3  4  2  0  0  0  0
  3  2  1  0  0  0  0
  5 12  1  0  0  0  0
  5  3  1  0  0  0  0
  6  7  2  0  0  0  0
  6  5  1  0  0  0  0
  8  7  1  0  0  0  0
  9  8  2  0  0  0  0
 10  9  1  0  0  0  0
 10  6  1  0  0  0  0
 11  2  1  0  0  0  0
 13 18  2  0  0  0  0
 13 14  1  0  0  0  0
 14 15  2  0  0  0  0
 15 16  1  0  0  0  0
 15  1  1  0  0  0  0
 17 16  2  0  0  0  0
 18 17  1  0  0  0  0
 19 20  1  0  0  0  0
 20 13  1  0  0  0  0
 21 18  1  0  0  0  0
 22 21  1  0  0  0  0
M  END
>  <MODEL>
5

>  <REMARK>
 VINA RESULT:    -6.233      9.793     11.035
 INTER + INTRA:          -7.734
 INTER:                  -7.420
 INTRA:                  -0.314
 UNBOUND:                -0.226
  Name = CHEMBL3457007
  5 active torsions:
  status: ('A' for Active; 'I' for Inactive)
    1  A    between atoms: C_1  and  O_2
    2  A    between atoms: O_2  and  C_3
    3  A    between atoms: C_5  and  C_6
    4  A    between atoms: C_6  and  N_7
    5  A    between atoms: C_18  and  O_19
                            x       y       z     vdW  Elec       q    Type
                         _______ _______ _______ _____ _____    ______ ____

>  <TORSDO>
F 4

>  <SCORE>
-6.233

>  <RMSD_LB>
9.793

>  <RMSD_UB>
11.035

$$$$
CHEMBL3457007
 OpenBabel10172500253D

 22 23  0  0  0  0  0  0  0  0999 V2000
  144.9040  141.3180  151.0110 C   0  0  0  0  0  2  0  0  0  0  0  0
  144.8400  140.4220  149.8740 N   0  0  0  0  0  0  0  0  0  0  0  0
  144.4750  139.1050  150.0260 C   0  0  0  0  0  0  0  0  0  0  0  0
  144.1760  138.6490  151.1200 O   0  0  0  0  0  0  0  0  0  0  0  0
  144.5260  138.4100  148.8470 N   0  0  0  0  0  0  0  0  0  0  0  0
  144.1770  137.0860  148.7040 C   0  0  0  0  0  0  0  0  0  0  0  0
  144.5680  136.3500  147.6850 N   0  0  0  0  0  0  0  0  0  0  0  0
  144.1090  135.0480  147.7790 N   0  0  0  0  0  0  0  0  0  0  0  0
  143.3520  134.8760  148.8410 C   0  0  0  0  0  3  0  0  0  0  0  0
  143.1280  136.2830  149.7880 S   0  0  0  0  0  0  0  0  0  0  0  0
  145.0620  140.7630  148.9770 H   0  0  0  0  0  0  0  0  0  0  0  0
  144.8350  138.8910  148.0440 H   0  0  0  0  0  0  0  0  0  0  0  0
  148.1110  141.3850  153.1160 C   0  0  0  0  0  0  0  0  0  0  0  0
  146.7870  141.1670  152.7200 C   0  0  0  0  0  3  0  0  0  0  0  0
  146.3120  141.6220  151.4740 C   0  0  0  0  0  0  0  0  0  0  0  0
  147.2000  142.2950  150.6220 C   0  0  0  0  0  3  0  0  0  0  0  0
  148.5240  142.5170  151.0030 C   0  0  0  0  0  3  0  0  0  0  0  0
  148.9700  142.0670  152.2450 C   0  0  0  0  0  0  0  0  0  0  0  0
  148.2410  139.7130  154.8120 C   0  0  0  0  0  1  0  0  0  0  0  0
  148.6580  140.9720  154.3030 O   0  0  0  0  0  0  0  0  0  0  0  0
  150.2710  142.2840  152.6180 O   0  0  0  0  0  0  0  0  0  0  0  0
  150.9640  142.1370  152.0050 H   0  0  0  0  0  0  0  0  0  0  0  0
  1 15  1  0  0  0  0
  2  3  1  0  0  0  0
  2  1  1  0  0  0  0
  3  4  2  0  0  0  0
  5  3  1  0  0  0  0
  6  5  1  0  0  0  0
  6 10  1  0  0  0  0
  7  8  1  0  0  0  0
  7  6  2  0  0  0  0
  8  9  2  0  0  0  0
  9 10  1  0  0  0  0
 11  2  1  0  0  0  0
 12  5  1  0  0  0  0
 13 20  1  0  0  0  0
 14 13  1  0  0  0  0
 15 14  2  0  0  0  0
 16 17  2  0  0  0  0
 16 15  1  0  0  0  0
 17 18  1  0  0  0  0
 18 21  1  0  0  0  0
 18 13  2  0  0  0  0
 20 19  1  0  0  0  0
 22 21  1  0  0  0  0
M  END
>  <MODEL>
6

>  <REMARK>
 VINA RESULT:    -6.051     12.478     14.718
 INTER + INTRA:          -7.515
 INTER:                  -7.177
 INTRA:                  -0.338
 UNBOUND:                -0.226
  Name = CHEMBL3457007
  5 active torsions:
  status: ('A' for Active; 'I' for Inactive)
    1  A    between atoms: C_1  and  O_2
    2  A    between atoms: O_2  and  C_3
    3  A    between atoms: C_5  and  C_6
    4  A    between atoms: C_6  and  N_7
    5  A    between atoms: C_18  and  O_19
                            x       y       z     vdW  Elec       q    Type
                         _______ _______ _______ _____ _____    ______ ____

>  <TORSDO>
F 4

>  <SCORE>
-6.051

>  <RMSD_LB>
12.478

>  <RMSD_UB>
14.718

$$$$
CHEMBL3457007
 OpenBabel10172500253D

 22 23  0  0  0  0  0  0  0  0999 V2000
  145.7320  136.8430  151.9310 C   0  0  0  0  0  2  0  0  0  0  0  0
  144.3970  137.3770  151.7430 N   0  0  0  0  0  0  0  0  0  0  0  0
  143.4840  137.3900  152.7720 C   0  0  0  0  0  0  0  0  0  0  0  0
  143.7720  136.9710  153.8830 O   0  0  0  0  0  0  0  0  0  0  0  0
  142.2670  137.8820  152.3830 N   0  0  0  0  0  0  0  0  0  0  0  0
  141.1850  138.0420  153.2200 C   0  0  0  0  0  0  0  0  0  0  0  0
  139.9520  138.1610  152.7770 N   0  0  0  0  0  0  0  0  0  0  0  0
  139.0400  138.2860  153.8100 N   0  0  0  0  0  0  0  0  0  0  0  0
  139.6350  138.3060  154.9830 C   0  0  0  0  0  3  0  0  0  0  0  0
  141.3410  138.1930  154.9150 S   0  0  0  0  0  0  0  0  0  0  0  0
  144.1390  137.7350  150.8620 H   0  0  0  0  0  0  0  0  0  0  0  0
  142.1570  138.1390  151.4380 H   0  0  0  0  0  0  0  0  0  0  0  0
  147.4940  140.2070  152.4850 C   0  0  0  0  0  0  0  0  0  0  0  0
  146.5890  139.2390  152.0310 C   0  0  0  0  0  3  0  0  0  0  0  0
  146.7510  137.8780  152.3550 C   0  0  0  0  0  0  0  0  0  0  0  0
  147.8370  137.5030  153.1590 C   0  0  0  0  0  3  0  0  0  0  0  0
  148.7450  138.4570  153.6200 C   0  0  0  0  0  3  0  0  0  0  0  0
  148.5720  139.7990  153.2790 C   0  0  0  0  0  0  0  0  0  0  0  0
  146.2080  142.2130  152.5910 C   0  0  0  0  0  1  0  0  0  0  0  0
  147.4090  141.5490  152.2250 O   0  0  0  0  0  0  0  0  0  0  0  0
  149.4620  140.7350  153.7350 O   0  0  0  0  0  0  0  0  0  0  0  0
  149.1500  141.5230  154.1350 H   0  0  0  0  0  0  0  0  0  0  0  0
  1 15  1  0  0  0  0
  2  1  1  0  0  0  0
  2  3  1  0  0  0  0
  3  4  2  0  0  0  0
  5  3  1  0  0  0  0
  5  6  1  0  0  0  0
  6 10  1  0  0  0  0
  7  6  2  0  0  0  0
  7  8  1  0  0  0  0
  8  9  2  0  0  0  0
 10  9  1  0  0  0  0
 11  2  1  0  0  0  0
 12  5  1  0  0  0  0
 13 18  1  0  0  0  0
 14 15  1  0  0  0  0
 14 13  2  0  0  0  0
 15 16  2  0  0  0  0
 16 17  1  0  0  0  0
 18 17  2  0  0  0  0
 18 21  1  0  0  0  0
 20 13  1  0  0  0  0
 20 19  1  0  0  0  0
 21 22  1  0  0  0  0
M  END
>  <MODEL>
7

>  <REMARK>
 VINA RESULT:    -5.773     10.776     12.531
 INTER + INTRA:          -7.180
 INTER:                  -6.820
 INTRA:                  -0.360
 UNBOUND:                -0.226
  Name = CHEMBL3457007
  5 active torsions:
  status: ('A' for Active; 'I' for Inactive)
    1  A    between atoms: C_1  and  O_2
    2  A    between atoms: O_2  and  C_3
    3  A    between atoms: C_5  and  C_6
    4  A    between atoms: C_6  and  N_7
    5  A    between atoms: C_18  and  O_19
                            x       y       z     vdW  Elec       q    Type
                         _______ _______ _______ _____ _____    ______ ____

>  <TORSDO>
F 4

>  <SCORE>
-5.773

>  <RMSD_LB>
10.776

>  <RMSD_UB>
12.531

$$$$
CHEMBL3457007
 OpenBabel10172500253D

 22 23  0  0  0  0  0  0  0  0999 V2000
  138.7970  136.6080  149.5260 C   0  0  0  0  0  2  0  0  0  0  0  0
  137.8650  135.5010  149.6170 N   0  0  0  0  0  0  0  0  0  0  0  0
  136.5870  135.6050  149.1200 C   0  0  0  0  0  0  0  0  0  0  0  0
  136.1990  136.6250  148.5690 O   0  0  0  0  0  0  0  0  0  0  0  0
  135.8450  134.4770  149.3480 N   0  0  0  0  0  0  0  0  0  0  0  0
  134.5480  134.2950  148.9250 C   0  0  0  0  0  0  0  0  0  0  0  0
  133.7460  133.3930  149.4490 N   0  0  0  0  0  0  0  0  0  0  0  0
  132.4880  133.4200  148.8740 N   0  0  0  0  0  0  0  0  0  0  0  0
  132.4160  134.3100  147.9070 C   0  0  0  0  0  3  0  0  0  0  0  0
  133.8720  135.1610  147.6160 S   0  0  0  0  0  0  0  0  0  0  0  0
  138.1530  134.6610  150.0420 H   0  0  0  0  0  0  0  0  0  0  0  0
  136.2700  133.7440  149.8510 H   0  0  0  0  0  0  0  0  0  0  0  0
  138.5860  137.9140  153.1280 C   0  0  0  0  0  0  0  0  0  0  0  0
  138.2190  137.4390  151.8630 C   0  0  0  0  0  3  0  0  0  0  0  0
  139.1840  137.1950  150.8650 C   0  0  0  0  0  0  0  0  0  0  0  0
  140.5340  137.4270  151.1660 C   0  0  0  0  0  3  0  0  0  0  0  0
  140.9140  137.8970  152.4230 C   0  0  0  0  0  3  0  0  0  0  0  0
  139.9420  138.1420  153.3930 C   0  0  0  0  0  0  0  0  0  0  0  0
  137.1450  137.0550  154.8230 C   0  0  0  0  0  1  0  0  0  0  0  0
  137.7180  138.1710  154.1560 O   0  0  0  0  0  0  0  0  0  0  0  0
  140.3170  138.6020  154.6280 O   0  0  0  0  0  0  0  0  0  0  0  0
  140.2720  139.5180  154.8200 H   0  0  0  0  0  0  0  0  0  0  0  0
  1  2  1  0  0  0  0
  1 15  1  0  0  0  0
  2 11  1  0  0  0  0
  3  5  1  0  0  0  0
  3  2  1  0  0  0  0
  4  3  2  0  0  0  0
  5 12  1  0  0  0  0
  6  5  1  0  0  0  0
  6  7  2  0  0  0  0
  8  7  1  0  0  0  0
  9  8  2  0  0  0  0
 10  9  1  0  0  0  0
 10  6  1  0  0  0  0
 13 18  1  0  0  0  0
 13 20  1  0  0  0  0
 14 13  2  0  0  0  0
 15 16  2  0  0  0  0
 15 14  1  0  0  0  0
 16 17  1  0  0  0  0
 17 18  2  0  0  0  0
 18 21  1  0  0  0  0
 20 19  1  0  0  0  0
 21 22  1  0  0  0  0
M  END
>  <MODEL>
8

>  <REMARK>
 VINA RESULT:    -5.738      4.661      7.988
 INTER + INTRA:          -7.138
 INTER:                  -6.805
 INTRA:                  -0.333
 UNBOUND:                -0.226
  Name = CHEMBL3457007
  5 active torsions:
  status: ('A' for Active; 'I' for Inactive)
    1  A    between atoms: C_1  and  O_2
    2  A    between atoms: O_2  and  C_3
    3  A    between atoms: C_5  and  C_6
    4  A    between atoms: C_6  and  N_7
    5  A    between atoms: C_18  and  O_19
                            x       y       z     vdW  Elec       q    Type
                         _______ _______ _______ _____ _____    ______ ____

>  <TORSDO>
F 4

>  <SCORE>
-5.738

>  <RMSD_LB>
4.661

>  <RMSD_UB>
7.988

$$$$
CHEMBL3457007
 OpenBabel10172500253D

 22 23  0  0  0  0  0  0  0  0999 V2000
  132.8210  137.1260  145.7470 C   0  0  0  0  0  2  0  0  0  0  0  0
  133.2140  137.3280  147.1280 N   0  0  0  0  0  0  0  0  0  0  0  0
  133.2230  136.2860  148.0250 C   0  0  0  0  0  0  0  0  0  0  0  0
  132.9180  135.1510  147.6850 O   0  0  0  0  0  0  0  0  0  0  0  0
  133.5690  136.6860  149.2880 N   0  0  0  0  0  0  0  0  0  0  0  0
  133.6930  135.8430  150.3690 C   0  0  0  0  0  0  0  0  0  0  0  0
  133.6640  136.2690  151.6130 N   0  0  0  0  0  0  0  0  0  0  0  0
  133.7830  135.2320  152.5200 N   0  0  0  0  0  0  0  0  0  0  0  0
  133.9470  134.0750  151.9150 C   0  0  0  0  0  3  0  0  0  0  0  0
  133.9870  134.1680  150.2070 S   0  0  0  0  0  0  0  0  0  0  0  0
  133.4780  138.2280  147.4290 H   0  0  0  0  0  0  0  0  0  0  0  0
  133.7420  137.6450  149.4330 H   0  0  0  0  0  0  0  0  0  0  0  0
  134.2300  138.9400  142.6730 C   0  0  0  0  0  0  0  0  0  0  0  0
  133.8720  137.9260  143.5690 C   0  0  0  0  0  3  0  0  0  0  0  0
  133.2800  138.2240  144.8130 C   0  0  0  0  0  0  0  0  0  0  0  0
  133.0420  139.5670  145.1380 C   0  0  0  0  0  3  0  0  0  0  0  0
  133.3920  140.5880  144.2530 C   0  0  0  0  0  3  0  0  0  0  0  0
  133.9850  140.2710  143.0310 C   0  0  0  0  0  0  0  0  0  0  0  0
  133.9900  138.1600  140.4320 C   0  0  0  0  0  1  0  0  0  0  0  0
  134.8000  138.7410  141.4430 O   0  0  0  0  0  0  0  0  0  0  0  0
  134.3260  141.2740  142.1620 O   0  0  0  0  0  0  0  0  0  0  0  0
  135.2170  141.5580  142.1020 H   0  0  0  0  0  0  0  0  0  0  0  0
  1  2  1  0  0  0  0
  2 11  1  0  0  0  0
  2  3  1  0  0  0  0
  3  5  1  0  0  0  0
  4  3  2  0  0  0  0
  5 12  1  0  0  0  0
  5  6  1  0  0  0  0
  6  7  2  0  0  0  0
  7  8  1  0  0  0  0
  9  8  2  0  0  0  0
 10  6  1  0  0  0  0
 10  9  1  0  0  0  0
 13 18  2  0  0  0  0
 13 14  1  0  0  0  0
 14 15  2  0  0  0  0
 15 16  1  0  0  0  0
 15  1  1  0  0  0  0
 17 16  2  0  0  0  0
 18 17  1  0  0  0  0
 19 20  1  0  0  0  0
 20 13  1  0  0  0  0
 21 18  1  0  0  0  0
 22 21  1  0  0  0  0
M  END
>  <MODEL>
9

>  <REMARK>
 VINA RESULT:    -5.628      4.443      6.966
 INTER + INTRA:          -7.005
 INTER:                  -6.779
 INTRA:                  -0.226
 UNBOUND:                -0.226
  Name = CHEMBL3457007
  5 active torsions:
  status: ('A' for Active; 'I' for Inactive)
    1  A    between atoms: C_1  and  O_2
    2  A    between atoms: O_2  and  C_3
    3  A    between atoms: C_5  and  C_6
    4  A    between atoms: C_6  and  N_7
    5  A    between atoms: C_18  and  O_19
                            x       y       z     vdW  Elec       q    Type
                         _______ _______ _______ _____ _____    ______ ____

>  <TORSDO>
F 4

>  <SCORE>
-5.628

>  <RMSD_LB>
4.443

>  <RMSD_UB>
6.966

$$$$
