CHEMBL1699225
 OpenBabel10172500093D

 31 32  0  0  0  0  0  0  0  0999 V2000
  135.6970  132.8740  146.6010 C   0  0  0  0  0  2  0  0  0  0  0  0
  133.9520  133.8590  148.0050 N   0  0  0  0  0  0  0  0  0  0  0  0
  134.5940  132.6920  147.6480 C   0  0  0  0  0  0  0  0  0  0  0  0
  134.3550  131.6020  148.1620 O   0  0  0  0  0  0  0  0  0  0  0  0
  134.2710  134.7120  147.6310 H   0  0  0  0  0  0  0  0  0  0  0  0
  132.8260  133.8680  148.9100 C   0  0  0  0  0  2  0  0  0  0  0  0
  133.9680  135.0230  152.9220 C   0  0  0  0  0  0  0  0  0  0  0  0
  134.1380  133.6980  152.5000 C   0  0  0  0  0  3  0  0  0  0  0  0
  133.7540  133.3170  151.2070 C   0  0  0  0  0  3  0  0  0  0  0  0
  133.2020  134.2530  150.3200 C   0  0  0  0  0  0  0  0  0  0  0  0
  133.0250  135.5740  150.7580 C   0  0  0  0  0  3  0  0  0  0  0  0
  133.4160  135.9610  152.0430 C   0  0  0  0  0  3  0  0  0  0  0  0
  134.3690  135.4780  154.2780 C   0  0  0  0  0  0  0  0  0  0  0  0
  134.7730  136.6000  154.5280 O   0  0  0  0  0  0  0  0  0  0  0  0
  134.6180  134.7880  156.4970 C   0  0  0  0  0  1  0  0  0  0  0  0
  134.1630  134.4820  155.1790 O   0  0  0  0  0  0  0  0  0  0  0  0
  135.9340  134.2390  146.2370 O   0  0  0  0  0  0  0  0  0  0  0  0
  137.2460  134.5720  146.1330 C   0  0  0  0  0  0  0  0  0  0  0  0
  138.0270  134.1870  145.2820 O   0  0  0  0  0  0  0  0  0  0  0  0
  137.5750  135.4970  147.2390 C   0  0  0  0  0  3  0  0  0  0  0  0
  137.4040  135.1140  148.5150 C   0  0  0  0  0  3  0  0  0  0  0  0
  137.7000  135.9600  149.6830 C   0  0  0  0  0  0  0  0  0  0  0  0
  136.7780  136.0130  150.7350 C   0  0  0  0  0  3  0  0  0  0  0  0
  137.0340  136.7900  151.8700 C   0  0  0  0  0  3  0  0  0  0  0  0
  138.2290  137.5030  151.9770 C   0  0  0  0  0  0  0  0  0  0  0  0
  139.1830  137.4310  150.9570 C   0  0  0  0  0  0  0  0  0  0  0  0
  138.9020  136.6690  149.8140 C   0  0  0  0  0  3  0  0  0  0  0  0
  138.4310  138.2840  153.0800 O   0  0  0  0  0  0  0  0  0  0  0  0
  137.7220  138.4640  153.6630 H   0  0  0  0  0  0  0  0  0  0  0  0
  140.3930  138.0710  150.9110 O   0  0  0  0  0  0  0  0  0  0  0  0
  141.4670  137.4370  151.5940 C   0  0  0  0  0  1  0  0  0  0  0  0
  1  3  1  0  0  0  0
  2  6  1  0  0  0  0
  3  2  1  0  0  0  0
  3  4  2  0  0  0  0
  5  2  1  0  0  0  0
  6 10  1  0  0  0  0
  7 13  1  0  0  0  0
  8  7  1  0  0  0  0
  9  8  2  0  0  0  0
 10 11  2  0  0  0  0
 10  9  1  0  0  0  0
 11 12  1  0  0  0  0
 12  7  2  0  0  0  0
 13 14  2  0  0  0  0
 13 16  1  0  0  0  0
 16 15  1  0  0  0  0
 17  1  1  0  0  0  0
 18 17  1  0  0  0  0
 18 20  1  0  0  0  0
 19 18  2  0  0  0  0
 20 21  2  0  0  0  0
 21 22  1  0  0  0  0
 22 27  2  0  0  0  0
 22 23  1  0  0  0  0
 23 24  2  0  0  0  0
 24 25  1  0  0  0  0
 25 28  1  0  0  0  0
 26 25  2  0  0  0  0
 27 26  1  0  0  0  0
 28 29  1  0  0  0  0
 30 26  1  0  0  0  0
 30 31  1  0  0  0  0
M  END
>  <MODEL>
1

>  <REMARK>
 VINA RESULT:    -6.498      0.000      0.000
 INTER + INTRA:         -12.855
 INTER:                 -10.974
 INTRA:                  -1.881
 UNBOUND:                -2.368
  Name = CHEMBL1699225
  13 active torsions:
  status: ('A' for Active; 'I' for Inactive)
    1  A    between atoms: C_1  and  O_2
    2  A    between atoms: O_2  and  C_3
    3  A    between atoms: C_3  and  C_5
    4  A    between atoms: C_8  and  C_9
    5  A    between atoms: C_9  and  N_10
    6  A    between atoms: C_11  and  C_13
    7  A    between atoms: C_13  and  O_14
    8  A    between atoms: O_14  and  C_15
    9  A    between atoms: C_15  and  C_17
   10  A    between atoms: C_18  and  C_19
   11  A    between atoms: C_22  and  O_23
   12  A    between atoms: C_24  and  O_25
   13  A    between atoms: O_25  and  C_26
                            x       y       z     vdW  Elec       q    Type
                         _______ _______ _______ _____ _____    ______ ____

>  <TORSDO>
F 11

>  <SCORE>
-6.498

>  <RMSD_LB>
0.000

>  <RMSD_UB>
0.000

$$$$
CHEMBL1699225
 OpenBabel10172500093D

 31 32  0  0  0  0  0  0  0  0999 V2000
  142.0100  138.0160  152.2280 C   0  0  0  0  0  2  0  0  0  0  0  0
  139.8160  138.3860  153.2430 N   0  0  0  0  0  0  0  0  0  0  0  0
  141.1430  138.1080  153.4870 C   0  0  0  0  0  0  0  0  0  0  0  0
  141.6170  138.0030  154.6160 O   0  0  0  0  0  0  0  0  0  0  0  0
  139.5280  138.5660  152.3190 H   0  0  0  0  0  0  0  0  0  0  0  0
  138.8320  138.4200  154.3000 C   0  0  0  0  0  2  0  0  0  0  0  0
  135.6460  135.5400  153.7680 C   0  0  0  0  0  0  0  0  0  0  0  0
  136.0630  135.8910  155.0580 C   0  0  0  0  0  3  0  0  0  0  0  0
  137.1060  136.8110  155.2340 C   0  0  0  0  0  3  0  0  0  0  0  0
  137.7390  137.3930  154.1260 C   0  0  0  0  0  0  0  0  0  0  0  0
  137.3210  137.0240  152.8390 C   0  0  0  0  0  3  0  0  0  0  0  0
  136.2750  136.1150  152.6590 C   0  0  0  0  0  3  0  0  0  0  0  0
  134.5390  134.5770  153.5300 C   0  0  0  0  0  0  0  0  0  0  0  0
  134.3120  133.6120  154.2390 O   0  0  0  0  0  0  0  0  0  0  0  0
  133.6420  133.9580  151.4630 C   0  0  0  0  0  1  0  0  0  0  0  0
  133.8080  134.9710  152.4550 O   0  0  0  0  0  0  0  0  0  0  0  0
  141.4440  138.6620  151.0830 O   0  0  0  0  0  0  0  0  0  0  0  0
  142.2070  139.6590  150.5650 C   0  0  0  0  0  0  0  0  0  0  0  0
  141.8970  140.4150  149.6620 O   0  0  0  0  0  0  0  0  0  0  0  0
  143.4940  139.6780  151.2920 C   0  0  0  0  0  3  0  0  0  0  0  0
  144.2780  140.7680  151.2520 C   0  0  0  0  0  3  0  0  0  0  0  0
  145.5750  140.8850  151.9390 C   0  0  0  0  0  0  0  0  0  0  0  0
  146.5380  141.7630  151.4290 C   0  0  0  0  0  3  0  0  0  0  0  0
  147.7740  141.9160  152.0650 C   0  0  0  0  0  3  0  0  0  0  0  0
  148.0530  141.2080  153.2350 C   0  0  0  0  0  0  0  0  0  0  0  0
  147.0900  140.3570  153.7860 C   0  0  0  0  0  0  0  0  0  0  0  0
  145.8650  140.1940  153.1230 C   0  0  0  0  0  3  0  0  0  0  0  0
  149.2840  141.3480  153.8100 O   0  0  0  0  0  0  0  0  0  0  0  0
  149.4730  140.9230  154.6230 H   0  0  0  0  0  0  0  0  0  0  0  0
  147.2110  139.5950  154.9180 O   0  0  0  0  0  0  0  0  0  0  0  0
  146.0480  138.8890  155.3300 C   0  0  0  0  0  1  0  0  0  0  0  0
  1  3  1  0  0  0  0
  2  3  1  0  0  0  0
  2  6  1  0  0  0  0
  3  4  2  0  0  0  0
  5  2  1  0  0  0  0
  7  8  1  0  0  0  0
  8  9  2  0  0  0  0
 10  6  1  0  0  0  0
 10  9  1  0  0  0  0
 11 10  2  0  0  0  0
 12 11  1  0  0  0  0
 12  7  2  0  0  0  0
 13  7  1  0  0  0  0
 13 14  2  0  0  0  0
 15 16  1  0  0  0  0
 16 13  1  0  0  0  0
 17  1  1  0  0  0  0
 18 17  1  0  0  0  0
 18 20  1  0  0  0  0
 19 18  2  0  0  0  0
 21 20  2  0  0  0  0
 21 22  1  0  0  0  0
 22 27  1  0  0  0  0
 23 22  2  0  0  0  0
 23 24  1  0  0  0  0
 24 25  2  0  0  0  0
 25 26  1  0  0  0  0
 25 28  1  0  0  0  0
 26 30  1  0  0  0  0
 27 26  2  0  0  0  0
 28 29  1  0  0  0  0
 30 31  1  0  0  0  0
M  END
>  <MODEL>
2

>  <REMARK>
 VINA RESULT:    -6.237      4.751      8.129
 INTER + INTRA:         -12.434
 INTER:                 -11.700
 INTRA:                  -0.734
 UNBOUND:                -2.368
  Name = CHEMBL1699225
  13 active torsions:
  status: ('A' for Active; 'I' for Inactive)
    1  A    between atoms: C_1  and  O_2
    2  A    between atoms: O_2  and  C_3
    3  A    between atoms: C_3  and  C_5
    4  A    between atoms: C_8  and  C_9
    5  A    between atoms: C_9  and  N_10
    6  A    between atoms: C_11  and  C_13
    7  A    between atoms: C_13  and  O_14
    8  A    between atoms: O_14  and  C_15
    9  A    between atoms: C_15  and  C_17
   10  A    between atoms: C_18  and  C_19
   11  A    between atoms: C_22  and  O_23
   12  A    between atoms: C_24  and  O_25
   13  A    between atoms: O_25  and  C_26
                            x       y       z     vdW  Elec       q    Type
                         _______ _______ _______ _____ _____    ______ ____

>  <TORSDO>
F 11

>  <SCORE>
-6.237

>  <RMSD_LB>
4.751

>  <RMSD_UB>
8.129

$$$$
CHEMBL1699225
 OpenBabel10172500093D

 31 32  0  0  0  0  0  0  0  0999 V2000
  145.3040  136.7840  146.3930 C   0  0  0  0  0  2  0  0  0  0  0  0
  143.2280  136.6800  147.6820 N   0  0  0  0  0  0  0  0  0  0  0  0
  144.2980  135.9570  147.1990 C   0  0  0  0  0  0  0  0  0  0  0  0
  144.4740  134.7650  147.4380 O   0  0  0  0  0  0  0  0  0  0  0  0
  143.2090  137.6540  147.5430 H   0  0  0  0  0  0  0  0  0  0  0  0
  142.1330  136.0520  148.3850 C   0  0  0  0  0  2  0  0  0  0  0  0
  141.5660  137.6620  152.3620 C   0  0  0  0  0  0  0  0  0  0  0  0
  142.8470  137.2900  151.9340 C   0  0  0  0  0  3  0  0  0  0  0  0
  143.0320  136.7530  150.6530 C   0  0  0  0  0  3  0  0  0  0  0  0
  141.9430  136.5860  149.7840 C   0  0  0  0  0  0  0  0  0  0  0  0
  140.6640  136.9510  150.2290 C   0  0  0  0  0  3  0  0  0  0  0  0
  140.4760  137.4960  151.5020 C   0  0  0  0  0  3  0  0  0  0  0  0
  141.3210  138.2450  153.7070 C   0  0  0  0  0  0  0  0  0  0  0  0
  142.1640  138.3110  154.5840 O   0  0  0  0  0  0  0  0  0  0  0  0
  139.3510  138.3540  154.9590 C   0  0  0  0  0  1  0  0  0  0  0  0
  140.0530  138.7310  153.7750 O   0  0  0  0  0  0  0  0  0  0  0  0
  145.9520  137.8110  147.1510 O   0  0  0  0  0  0  0  0  0  0  0  0
  146.8240  137.3550  148.0860 C   0  0  0  0  0  0  0  0  0  0  0  0
  147.7490  136.5840  147.9010 O   0  0  0  0  0  0  0  0  0  0  0  0
  146.4620  137.9580  149.3860 C   0  0  0  0  0  3  0  0  0  0  0  0
  146.7280  137.3090  150.5310 C   0  0  0  0  0  3  0  0  0  0  0  0
  146.4060  137.8230  151.8730 C   0  0  0  0  0  0  0  0  0  0  0  0
  146.4300  136.9450  152.9620 C   0  0  0  0  0  3  0  0  0  0  0  0
  146.1500  137.4000  154.2540 C   0  0  0  0  0  3  0  0  0  0  0  0
  145.8660  138.7490  154.4750 C   0  0  0  0  0  0  0  0  0  0  0  0
  145.8790  139.6530  153.4090 C   0  0  0  0  0  0  0  0  0  0  0  0
  146.1350  139.1770  152.1160 C   0  0  0  0  0  3  0  0  0  0  0  0
  145.5570  139.1560  155.7430 O   0  0  0  0  0  0  0  0  0  0  0  0
  145.2670  140.0330  155.8960 H   0  0  0  0  0  0  0  0  0  0  0  0
  145.6180  140.9970  153.4610 O   0  0  0  0  0  0  0  0  0  0  0  0
  146.7040  141.8350  153.8360 C   0  0  0  0  0  1  0  0  0  0  0  0
  1 17  1  0  0  0  0
  1  3  1  0  0  0  0
  2  6  1  0  0  0  0
  3  4  2  0  0  0  0
  3  2  1  0  0  0  0
  5  2  1  0  0  0  0
  6 10  1  0  0  0  0
  7 13  1  0  0  0  0
  8  7  1  0  0  0  0
  9  8  2  0  0  0  0
 10 11  2  0  0  0  0
 10  9  1  0  0  0  0
 11 12  1  0  0  0  0
 12  7  2  0  0  0  0
 13 16  1  0  0  0  0
 13 14  2  0  0  0  0
 16 15  1  0  0  0  0
 17 18  1  0  0  0  0
 18 20  1  0  0  0  0
 19 18  2  0  0  0  0
 20 21  2  0  0  0  0
 21 22  1  0  0  0  0
 22 27  2  0  0  0  0
 22 23  1  0  0  0  0
 23 24  2  0  0  0  0
 24 25  1  0  0  0  0
 25 28  1  0  0  0  0
 26 30  1  0  0  0  0
 26 25  2  0  0  0  0
 27 26  1  0  0  0  0
 28 29  1  0  0  0  0
 30 31  1  0  0  0  0
M  END
>  <MODEL>
3

>  <REMARK>
 VINA RESULT:    -6.093      6.269      8.878
 INTER + INTRA:         -12.201
 INTER:                 -10.057
 INTRA:                  -2.144
 UNBOUND:                -2.368
  Name = CHEMBL1699225
  13 active torsions:
  status: ('A' for Active; 'I' for Inactive)
    1  A    between atoms: C_1  and  O_2
    2  A    between atoms: O_2  and  C_3
    3  A    between atoms: C_3  and  C_5
    4  A    between atoms: C_8  and  C_9
    5  A    between atoms: C_9  and  N_10
    6  A    between atoms: C_11  and  C_13
    7  A    between atoms: C_13  and  O_14
    8  A    between atoms: O_14  and  C_15
    9  A    between atoms: C_15  and  C_17
   10  A    between atoms: C_18  and  C_19
   11  A    between atoms: C_22  and  O_23
   12  A    between atoms: C_24  and  O_25
   13  A    between atoms: O_25  and  C_26
                            x       y       z     vdW  Elec       q    Type
                         _______ _______ _______ _____ _____    ______ ____

>  <TORSDO>
F 11

>  <SCORE>
-6.093

>  <RMSD_LB>
6.269

>  <RMSD_UB>
8.878

$$$$
CHEMBL1699225
 OpenBabel10172500093D

 31 32  0  0  0  0  0  0  0  0999 V2000
  148.5740  140.4460  154.5740 C   0  0  0  0  0  2  0  0  0  0  0  0
  146.9990  141.4440  152.9910 N   0  0  0  0  0  0  0  0  0  0  0  0
  148.3170  141.3800  153.3870 C   0  0  0  0  0  0  0  0  0  0  0  0
  149.2290  141.9660  152.8080 O   0  0  0  0  0  0  0  0  0  0  0  0
  146.3390  140.8620  153.4320 H   0  0  0  0  0  0  0  0  0  0  0  0
  146.5540  142.3400  151.9490 C   0  0  0  0  0  2  0  0  0  0  0  0
  146.4650  140.4260  148.0680 C   0  0  0  0  0  0  0  0  0  0  0  0
  146.5980  141.8170  148.1590 C   0  0  0  0  0  3  0  0  0  0  0  0
  146.6110  142.4420  149.4130 C   0  0  0  0  0  3  0  0  0  0  0  0
  146.4960  141.6860  150.5890 C   0  0  0  0  0  0  0  0  0  0  0  0
  146.3500  140.2950  150.4850 C   0  0  0  0  0  3  0  0  0  0  0  0
  146.3470  139.6660  149.2370 C   0  0  0  0  0  3  0  0  0  0  0  0
  146.4560  139.7160  146.7630 C   0  0  0  0  0  0  0  0  0  0  0  0
  147.4050  139.6830  145.9990 O   0  0  0  0  0  0  0  0  0  0  0  0
  144.2820  139.8630  145.9170 C   0  0  0  0  0  1  0  0  0  0  0  0
  145.2680  139.0800  146.5910 O   0  0  0  0  0  0  0  0  0  0  0  0
  148.7160  139.0690  154.2110 O   0  0  0  0  0  0  0  0  0  0  0  0
  147.8180  138.2370  154.8000 C   0  0  0  0  0  0  0  0  0  0  0  0
  147.9170  137.7250  155.9010 O   0  0  0  0  0  0  0  0  0  0  0  0
  146.6820  138.0540  153.8720 C   0  0  0  0  0  3  0  0  0  0  0  0
  146.7490  137.1360  152.8930 C   0  0  0  0  0  3  0  0  0  0  0  0
  145.6750  136.8790  151.9190 C   0  0  0  0  0  0  0  0  0  0  0  0
  145.9340  136.0460  150.8260 C   0  0  0  0  0  3  0  0  0  0  0  0
  144.9330  135.7620  149.8910 C   0  0  0  0  0  3  0  0  0  0  0  0
  143.6510  136.2910  150.0540 C   0  0  0  0  0  0  0  0  0  0  0  0
  143.3580  137.0920  151.1620 C   0  0  0  0  0  0  0  0  0  0  0  0
  144.3790  137.3890  152.0770 C   0  0  0  0  0  3  0  0  0  0  0  0
  142.7060  136.0290  149.1030 O   0  0  0  0  0  0  0  0  0  0  0  0
  142.9630  135.6960  148.2660 H   0  0  0  0  0  0  0  0  0  0  0  0
  142.1600  137.6850  151.4590 O   0  0  0  0  0  0  0  0  0  0  0  0
  141.7820  137.6900  152.8300 C   0  0  0  0  0  1  0  0  0  0  0  0
  2  3  1  0  0  0  0
  2  5  1  0  0  0  0
  3  1  1  0  0  0  0
  4  3  2  0  0  0  0
  6  2  1  0  0  0  0
  7  8  2  0  0  0  0
  7 12  1  0  0  0  0
  8  9  1  0  0  0  0
  9 10  2  0  0  0  0
 10  6  1  0  0  0  0
 11 10  1  0  0  0  0
 12 11  2  0  0  0  0
 13  7  1  0  0  0  0
 14 13  2  0  0  0  0
 15 16  1  0  0  0  0
 16 13  1  0  0  0  0
 17  1  1  0  0  0  0
 17 18  1  0  0  0  0
 18 19  2  0  0  0  0
 20 18  1  0  0  0  0
 21 20  2  0  0  0  0
 22 27  1  0  0  0  0
 22 21  1  0  0  0  0
 23 22  2  0  0  0  0
 24 25  2  0  0  0  0
 24 23  1  0  0  0  0
 25 26  1  0  0  0  0
 26 30  1  0  0  0  0
 26 27  2  0  0  0  0
 28 25  1  0  0  0  0
 29 28  1  0  0  0  0
 30 31  1  0  0  0  0
M  END
>  <MODEL>
4

>  <REMARK>
 VINA RESULT:    -5.993      7.887     13.077
 INTER + INTRA:         -12.039
 INTER:                 -10.066
 INTRA:                  -1.973
 UNBOUND:                -2.368
  Name = CHEMBL1699225
  13 active torsions:
  status: ('A' for Active; 'I' for Inactive)
    1  A    between atoms: C_1  and  O_2
    2  A    between atoms: O_2  and  C_3
    3  A    between atoms: C_3  and  C_5
    4  A    between atoms: C_8  and  C_9
    5  A    between atoms: C_9  and  N_10
    6  A    between atoms: C_11  and  C_13
    7  A    between atoms: C_13  and  O_14
    8  A    between atoms: O_14  and  C_15
    9  A    between atoms: C_15  and  C_17
   10  A    between atoms: C_18  and  C_19
   11  A    between atoms: C_22  and  O_23
   12  A    between atoms: C_24  and  O_25
   13  A    between atoms: O_25  and  C_26
                            x       y       z     vdW  Elec       q    Type
                         _______ _______ _______ _____ _____    ______ ____

>  <TORSDO>
F 11

>  <SCORE>
-5.993

>  <RMSD_LB>
7.887

>  <RMSD_UB>
13.077

$$$$
CHEMBL1699225
 OpenBabel10172500093D

 31 32  0  0  0  0  0  0  0  0999 V2000
  143.4190  138.8100  146.3780 C   0  0  0  0  0  2  0  0  0  0  0  0
  144.8030  140.4820  147.5050 N   0  0  0  0  0  0  0  0  0  0  0  0
  144.8100  139.3680  146.6940 C   0  0  0  0  0  0  0  0  0  0  0  0
  145.8320  138.8890  146.2080 O   0  0  0  0  0  0  0  0  0  0  0  0
  143.9400  140.8750  147.7680 H   0  0  0  0  0  0  0  0  0  0  0  0
  146.0230  141.0910  147.9830 C   0  0  0  0  0  2  0  0  0  0  0  0
  146.2480  141.0880  152.3050 C   0  0  0  0  0  0  0  0  0  0  0  0
  145.9980  142.2820  151.6180 C   0  0  0  0  0  3  0  0  0  0  0  0
  145.9410  142.2900  150.2180 C   0  0  0  0  0  3  0  0  0  0  0  0
  146.1280  141.1070  149.4890 C   0  0  0  0  0  0  0  0  0  0  0  0
  146.3900  139.9190  150.1870 C   0  0  0  0  0  3  0  0  0  0  0  0
  146.4380  139.9040  151.5840 C   0  0  0  0  0  3  0  0  0  0  0  0
  146.3080  141.0260  153.7880 C   0  0  0  0  0  0  0  0  0  0  0  0
  145.5170  140.4040  154.4760 O   0  0  0  0  0  0  0  0  0  0  0  0
  148.5220  140.8860  154.5250 C   0  0  0  0  0  1  0  0  0  0  0  0
  147.3930  141.7110  154.2350 O   0  0  0  0  0  0  0  0  0  0  0  0
  143.3420  137.3810  146.4220 O   0  0  0  0  0  0  0  0  0  0  0  0
  142.2210  136.8960  147.0160 C   0  0  0  0  0  0  0  0  0  0  0  0
  141.3900  136.1640  146.5100 O   0  0  0  0  0  0  0  0  0  0  0  0
  142.1750  137.4110  148.4010 C   0  0  0  0  0  3  0  0  0  0  0  0
  142.5040  136.6150  149.4310 C   0  0  0  0  0  3  0  0  0  0  0  0
  142.4890  137.0320  150.8430 C   0  0  0  0  0  0  0  0  0  0  0  0
  143.6970  137.1010  151.5450 C   0  0  0  0  0  3  0  0  0  0  0  0
  143.7250  137.5120  152.8820 C   0  0  0  0  0  3  0  0  0  0  0  0
  142.5430  137.8840  153.5250 C   0  0  0  0  0  0  0  0  0  0  0  0
  141.3300  137.8640  152.8300 C   0  0  0  0  0  0  0  0  0  0  0  0
  141.3140  137.4250  151.4990 C   0  0  0  0  0  3  0  0  0  0  0  0
  142.5980  138.2430  154.8420 O   0  0  0  0  0  0  0  0  0  0  0  0
  141.8080  138.3300  155.3370 H   0  0  0  0  0  0  0  0  0  0  0  0
  140.0930  138.1930  153.3190 O   0  0  0  0  0  0  0  0  0  0  0  0
  138.9820  137.8610  152.4950 C   0  0  0  0  0  1  0  0  0  0  0  0
  1 17  1  0  0  0  0
  1  3  1  0  0  0  0
  2  5  1  0  0  0  0
  2  6  1  0  0  0  0
  3  2  1  0  0  0  0
  4  3  2  0  0  0  0
  6 10  1  0  0  0  0
  7 13  1  0  0  0  0
  8  7  1  0  0  0  0
  9  8  2  0  0  0  0
 10 11  2  0  0  0  0
 10  9  1  0  0  0  0
 11 12  1  0  0  0  0
 12  7  2  0  0  0  0
 13 16  1  0  0  0  0
 13 14  2  0  0  0  0
 16 15  1  0  0  0  0
 17 18  1  0  0  0  0
 18 20  1  0  0  0  0
 19 18  2  0  0  0  0
 20 21  2  0  0  0  0
 21 22  1  0  0  0  0
 22 27  2  0  0  0  0
 22 23  1  0  0  0  0
 23 24  2  0  0  0  0
 24 25  1  0  0  0  0
 25 28  1  0  0  0  0
 26 30  1  0  0  0  0
 26 25  2  0  0  0  0
 27 26  1  0  0  0  0
 28 29  1  0  0  0  0
 31 30  1  0  0  0  0
M  END
>  <MODEL>
5

>  <REMARK>
 VINA RESULT:    -5.900      5.943     10.473
 INTER + INTRA:         -11.889
 INTER:                 -10.318
 INTRA:                  -1.571
 UNBOUND:                -2.368
  Name = CHEMBL1699225
  13 active torsions:
  status: ('A' for Active; 'I' for Inactive)
    1  A    between atoms: C_1  and  O_2
    2  A    between atoms: O_2  and  C_3
    3  A    between atoms: C_3  and  C_5
    4  A    between atoms: C_8  and  C_9
    5  A    between atoms: C_9  and  N_10
    6  A    between atoms: C_11  and  C_13
    7  A    between atoms: C_13  and  O_14
    8  A    between atoms: O_14  and  C_15
    9  A    between atoms: C_15  and  C_17
   10  A    between atoms: C_18  and  C_19
   11  A    between atoms: C_22  and  O_23
   12  A    between atoms: C_24  and  O_25
   13  A    between atoms: O_25  and  C_26
                            x       y       z     vdW  Elec       q    Type
                         _______ _______ _______ _____ _____    ______ ____

>  <TORSDO>
F 11

>  <SCORE>
-5.900

>  <RMSD_LB>
5.943

>  <RMSD_UB>
10.473

$$$$
CHEMBL1699225
 OpenBabel10172500093D

 31 32  0  0  0  0  0  0  0  0999 V2000
  135.0140  135.4730  144.4980 C   0  0  0  0  0  2  0  0  0  0  0  0
  133.7130  134.5460  146.3500 N   0  0  0  0  0  0  0  0  0  0  0  0
  134.8460  134.4000  145.5780 C   0  0  0  0  0  0  0  0  0  0  0  0
  135.6880  133.5270  145.7680 O   0  0  0  0  0  0  0  0  0  0  0  0
  133.1390  135.3330  146.2120 H   0  0  0  0  0  0  0  0  0  0  0  0
  133.3420  133.5780  147.3570 C   0  0  0  0  0  2  0  0  0  0  0  0
  133.7580  135.0230  151.4150 C   0  0  0  0  0  0  0  0  0  0  0  0
  133.7580  135.9280  150.3470 C   0  0  0  0  0  3  0  0  0  0  0  0
  133.6390  135.4630  149.0300 C   0  0  0  0  0  3  0  0  0  0  0  0
  133.5160  134.0910  148.7660 C   0  0  0  0  0  0  0  0  0  0  0  0
  133.5300  133.1930  149.8430 C   0  0  0  0  0  3  0  0  0  0  0  0
  133.6370  133.6530  151.1590 C   0  0  0  0  0  3  0  0  0  0  0  0
  133.8710  135.4680  152.8280 C   0  0  0  0  0  0  0  0  0  0  0  0
  134.0670  136.6230  153.1640 O   0  0  0  0  0  0  0  0  0  0  0  0
  134.6230  134.3180  154.7180 C   0  0  0  0  0  1  0  0  0  0  0  0
  133.6670  134.4140  153.6620 O   0  0  0  0  0  0  0  0  0  0  0  0
  134.8180  136.8100  144.9710 O   0  0  0  0  0  0  0  0  0  0  0  0
  133.6640  137.3910  144.5530 C   0  0  0  0  0  0  0  0  0  0  0  0
  132.5380  137.1190  144.9290 O   0  0  0  0  0  0  0  0  0  0  0  0
  134.0040  138.4250  143.5520 C   0  0  0  0  0  3  0  0  0  0  0  0
  134.9010  139.3810  143.8450 C   0  0  0  0  0  3  0  0  0  0  0  0
  135.3050  140.4530  142.9200 C   0  0  0  0  0  0  0  0  0  0  0  0
  134.3350  141.3420  142.4440 C   0  0  0  0  0  3  0  0  0  0  0  0
  134.6840  142.3850  141.5800 C   0  0  0  0  0  3  0  0  0  0  0  0
  136.0150  142.5650  141.2000 C   0  0  0  0  0  0  0  0  0  0  0  0
  137.0070  141.7150  141.6970 C   0  0  0  0  0  0  0  0  0  0  0  0
  136.6390  140.6580  142.5420 C   0  0  0  0  0  3  0  0  0  0  0  0
  136.3180  143.5680  140.3230 O   0  0  0  0  0  0  0  0  0  0  0  0
  135.7050  144.2600  140.1720 H   0  0  0  0  0  0  0  0  0  0  0  0
  138.3480  141.7570  141.4180 O   0  0  0  0  0  0  0  0  0  0  0  0
  139.1900  142.2640  142.4460 C   0  0  0  0  0  1  0  0  0  0  0  0
  1 17  1  0  0  0  0
  1  3  1  0  0  0  0
  2  6  1  0  0  0  0
  3  4  2  0  0  0  0
  3  2  1  0  0  0  0
  5  2  1  0  0  0  0
  6 10  1  0  0  0  0
  7 13  1  0  0  0  0
  8  7  2  0  0  0  0
  9  8  1  0  0  0  0
 10  9  2  0  0  0  0
 10 11  1  0  0  0  0
 11 12  2  0  0  0  0
 12  7  1  0  0  0  0
 13 14  2  0  0  0  0
 13 16  1  0  0  0  0
 16 15  1  0  0  0  0
 18 19  2  0  0  0  0
 18 17  1  0  0  0  0
 20 21  2  0  0  0  0
 20 18  1  0  0  0  0
 22 21  1  0  0  0  0
 23 22  2  0  0  0  0
 24 23  1  0  0  0  0
 25 24  2  0  0  0  0
 25 26  1  0  0  0  0
 26 27  2  0  0  0  0
 27 22  1  0  0  0  0
 28 25  1  0  0  0  0
 29 28  1  0  0  0  0
 30 26  1  0  0  0  0
 30 31  1  0  0  0  0
M  END
>  <MODEL>
6

>  <REMARK>
 VINA RESULT:    -5.521      5.332      6.692
 INTER + INTRA:         -11.278
 INTER:                 -10.370
 INTRA:                  -0.908
 UNBOUND:                -2.368
  Name = CHEMBL1699225
  13 active torsions:
  status: ('A' for Active; 'I' for Inactive)
    1  A    between atoms: C_1  and  O_2
    2  A    between atoms: O_2  and  C_3
    3  A    between atoms: C_3  and  C_5
    4  A    between atoms: C_8  and  C_9
    5  A    between atoms: C_9  and  N_10
    6  A    between atoms: C_11  and  C_13
    7  A    between atoms: C_13  and  O_14
    8  A    between atoms: O_14  and  C_15
    9  A    between atoms: C_15  and  C_17
   10  A    between atoms: C_18  and  C_19
   11  A    between atoms: C_22  and  O_23
   12  A    between atoms: C_24  and  O_25
   13  A    between atoms: O_25  and  C_26
                            x       y       z     vdW  Elec       q    Type
                         _______ _______ _______ _____ _____    ______ ____

>  <TORSDO>
F 11

>  <SCORE>
-5.521

>  <RMSD_LB>
5.332

>  <RMSD_UB>
6.692

$$$$
CHEMBL1699225
 OpenBabel10172500093D

 31 32  0  0  0  0  0  0  0  0999 V2000
  144.1850  139.2490  155.0320 C   0  0  0  0  0  2  0  0  0  0  0  0
  142.1120  138.3460  154.1000 N   0  0  0  0  0  0  0  0  0  0  0  0
  142.6540  139.2600  154.9780 C   0  0  0  0  0  0  0  0  0  0  0  0
  141.9840  140.0630  155.6210 O   0  0  0  0  0  0  0  0  0  0  0  0
  142.7140  137.8090  153.5370 H   0  0  0  0  0  0  0  0  0  0  0  0
  140.6850  138.1490  153.9830 C   0  0  0  0  0  2  0  0  0  0  0  0
  139.3980  137.0300  150.0050 C   0  0  0  0  0  0  0  0  0  0  0  0
  140.7590  137.0080  150.3320 C   0  0  0  0  0  3  0  0  0  0  0  0
  141.1810  137.3850  151.6140 C   0  0  0  0  0  3  0  0  0  0  0  0
  140.2500  137.7840  152.5840 C   0  0  0  0  0  0  0  0  0  0  0  0
  138.8910  137.8150  152.2410 C   0  0  0  0  0  3  0  0  0  0  0  0
  138.4640  137.4300  150.9670 C   0  0  0  0  0  3  0  0  0  0  0  0
  138.9000  136.6300  148.6630 C   0  0  0  0  0  0  0  0  0  0  0  0
  139.6210  136.2630  147.7520 O   0  0  0  0  0  0  0  0  0  0  0  0
  137.0110  137.4350  147.5480 C   0  0  0  0  0  1  0  0  0  0  0  0
  137.5430  136.6840  148.6390 O   0  0  0  0  0  0  0  0  0  0  0  0
  144.8060  138.7580  153.8390 O   0  0  0  0  0  0  0  0  0  0  0  0
  146.0320  138.2050  154.0300 C   0  0  0  0  0  0  0  0  0  0  0  0
  146.6900  138.2360  155.0550 O   0  0  0  0  0  0  0  0  0  0  0  0
  146.4430  137.5490  152.7710 C   0  0  0  0  0  3  0  0  0  0  0  0
  145.5500  136.8550  152.0470 C   0  0  0  0  0  3  0  0  0  0  0  0
  145.8600  136.1660  150.7830 C   0  0  0  0  0  0  0  0  0  0  0  0
  147.1820  135.7880  150.5220 C   0  0  0  0  0  3  0  0  0  0  0  0
  147.5130  135.1140  149.3410 C   0  0  0  0  0  3  0  0  0  0  0  0
  146.5180  134.7880  148.4180 C   0  0  0  0  0  0  0  0  0  0  0  0
  145.1840  135.1180  148.6780 C   0  0  0  0  0  0  0  0  0  0  0  0
  144.8720  135.8170  149.8530 C   0  0  0  0  0  3  0  0  0  0  0  0
  146.8780  134.1650  147.2570 O   0  0  0  0  0  0  0  0  0  0  0  0
  146.3660  134.2860  146.4820 H   0  0  0  0  0  0  0  0  0  0  0  0
  144.1010  134.8740  147.8760 O   0  0  0  0  0  0  0  0  0  0  0  0
  142.8700  134.6180  148.5400 C   0  0  0  0  0  1  0  0  0  0  0  0
  2  3  1  0  0  0  0
  3  1  1  0  0  0  0
  3  4  2  0  0  0  0
  5  2  1  0  0  0  0
  6  2  1  0  0  0  0
  7  8  2  0  0  0  0
  7 12  1  0  0  0  0
  8  9  1  0  0  0  0
  9 10  2  0  0  0  0
 10  6  1  0  0  0  0
 11 10  1  0  0  0  0
 12 11  2  0  0  0  0
 13  7  1  0  0  0  0
 14 13  2  0  0  0  0
 15 16  1  0  0  0  0
 16 13  1  0  0  0  0
 17 18  1  0  0  0  0
 17  1  1  0  0  0  0
 18 19  2  0  0  0  0
 20 18  1  0  0  0  0
 21 20  2  0  0  0  0
 22 21  1  0  0  0  0
 23 22  1  0  0  0  0
 24 23  2  0  0  0  0
 25 26  2  0  0  0  0
 25 24  1  0  0  0  0
 26 27  1  0  0  0  0
 27 22  2  0  0  0  0
 28 25  1  0  0  0  0
 29 28  1  0  0  0  0
 30 31  1  0  0  0  0
 30 26  1  0  0  0  0
M  END
>  <MODEL>
7

>  <REMARK>
 VINA RESULT:    -5.365      4.951      9.613
 INTER + INTRA:         -11.026
 INTER:                  -9.777
 INTRA:                  -1.248
 UNBOUND:                -2.368
  Name = CHEMBL1699225
  13 active torsions:
  status: ('A' for Active; 'I' for Inactive)
    1  A    between atoms: C_1  and  O_2
    2  A    between atoms: O_2  and  C_3
    3  A    between atoms: C_3  and  C_5
    4  A    between atoms: C_8  and  C_9
    5  A    between atoms: C_9  and  N_10
    6  A    between atoms: C_11  and  C_13
    7  A    between atoms: C_13  and  O_14
    8  A    between atoms: O_14  and  C_15
    9  A    between atoms: C_15  and  C_17
   10  A    between atoms: C_18  and  C_19
   11  A    between atoms: C_22  and  O_23
   12  A    between atoms: C_24  and  O_25
   13  A    between atoms: O_25  and  C_26
                            x       y       z     vdW  Elec       q    Type
                         _______ _______ _______ _____ _____    ______ ____

>  <TORSDO>
F 11

>  <SCORE>
-5.365

>  <RMSD_LB>
4.951

>  <RMSD_UB>
9.613

$$$$
CHEMBL1699225
 OpenBabel10172500093D

 31 32  0  0  0  0  0  0  0  0999 V2000
  138.1360  137.6230  152.5940 C   0  0  0  0  0  2  0  0  0  0  0  0
  138.4810  138.7070  150.4290 N   0  0  0  0  0  0  0  0  0  0  0  0
  138.2480  137.5100  151.0710 C   0  0  0  0  0  0  0  0  0  0  0  0
  138.0800  136.4450  150.4820 O   0  0  0  0  0  0  0  0  0  0  0  0
  138.4950  139.5370  150.9570 H   0  0  0  0  0  0  0  0  0  0  0  0
  138.7060  138.7810  149.0030 C   0  0  0  0  0  2  0  0  0  0  0  0
  142.9100  138.8080  147.9760 C   0  0  0  0  0  0  0  0  0  0  0  0
  142.4410  139.6090  149.0240 C   0  0  0  0  0  3  0  0  0  0  0  0
  141.0770  139.6150  149.3490 C   0  0  0  0  0  3  0  0  0  0  0  0
  140.1690  138.8190  148.6350 C   0  0  0  0  0  0  0  0  0  0  0  0
  140.6490  138.0310  147.5800 C   0  0  0  0  0  3  0  0  0  0  0  0
  142.0090  138.0130  147.2580 C   0  0  0  0  0  3  0  0  0  0  0  0
  144.3470  138.7590  147.6000 C   0  0  0  0  0  0  0  0  0  0  0  0
  145.2390  138.4300  148.3630 O   0  0  0  0  0  0  0  0  0  0  0  0
  144.7600  140.4600  146.0520 C   0  0  0  0  0  1  0  0  0  0  0  0
  144.4920  139.0770  146.2870 O   0  0  0  0  0  0  0  0  0  0  0  0
  138.6800  138.8350  153.1290 O   0  0  0  0  0  0  0  0  0  0  0  0
  139.5180  138.6590  154.1820 C   0  0  0  0  0  0  0  0  0  0  0  0
  139.2690  138.8840  155.3530 O   0  0  0  0  0  0  0  0  0  0  0  0
  140.8020  138.1380  153.6670 C   0  0  0  0  0  3  0  0  0  0  0  0
  141.6280  138.9400  152.9740 C   0  0  0  0  0  3  0  0  0  0  0  0
  142.9250  138.5170  152.4190 C   0  0  0  0  0  0  0  0  0  0  0  0
  143.0280  137.2590  151.8150 C   0  0  0  0  0  3  0  0  0  0  0  0
  144.2370  136.8300  151.2580 C   0  0  0  0  0  3  0  0  0  0  0  0
  145.3540  137.6680  151.2790 C   0  0  0  0  0  0  0  0  0  0  0  0
  145.2630  138.9460  151.8390 C   0  0  0  0  0  0  0  0  0  0  0  0
  144.0510  139.3510  152.4160 C   0  0  0  0  0  3  0  0  0  0  0  0
  146.5320  137.2050  150.7630 O   0  0  0  0  0  0  0  0  0  0  0  0
  147.3280  137.3100  151.2440 H   0  0  0  0  0  0  0  0  0  0  0  0
  146.2620  139.8770  151.9400 O   0  0  0  0  0  0  0  0  0  0  0  0
  146.4580  140.7150  150.8080 C   0  0  0  0  0  1  0  0  0  0  0  0
  1 17  1  0  0  0  0
  2  5  1  0  0  0  0
  2  3  1  0  0  0  0
  3  1  1  0  0  0  0
  4  3  2  0  0  0  0
  6  2  1  0  0  0  0
  7  8  1  0  0  0  0
  8  9  2  0  0  0  0
 10  6  1  0  0  0  0
 10  9  1  0  0  0  0
 11 10  2  0  0  0  0
 12 11  1  0  0  0  0
 12  7  2  0  0  0  0
 13  7  1  0  0  0  0
 13 14  2  0  0  0  0
 15 16  1  0  0  0  0
 16 13  1  0  0  0  0
 17 18  1  0  0  0  0
 18 19  2  0  0  0  0
 20 18  1  0  0  0  0
 21 20  2  0  0  0  0
 22 21  1  0  0  0  0
 23 22  2  0  0  0  0
 24 25  2  0  0  0  0
 24 23  1  0  0  0  0
 25 26  1  0  0  0  0
 26 30  1  0  0  0  0
 26 27  2  0  0  0  0
 27 22  1  0  0  0  0
 28 29  1  0  0  0  0
 28 25  1  0  0  0  0
 31 30  1  0  0  0  0
M  END
>  <MODEL>
8

>  <REMARK>
 VINA RESULT:    -5.239      4.855      9.122
 INTER + INTRA:         -10.824
 INTER:                  -8.456
 INTRA:                  -2.368
 UNBOUND:                -2.368
  Name = CHEMBL1699225
  13 active torsions:
  status: ('A' for Active; 'I' for Inactive)
    1  A    between atoms: C_1  and  O_2
    2  A    between atoms: O_2  and  C_3
    3  A    between atoms: C_3  and  C_5
    4  A    between atoms: C_8  and  C_9
    5  A    between atoms: C_9  and  N_10
    6  A    between atoms: C_11  and  C_13
    7  A    between atoms: C_13  and  O_14
    8  A    between atoms: O_14  and  C_15
    9  A    between atoms: C_15  and  C_17
   10  A    between atoms: C_18  and  C_19
   11  A    between atoms: C_22  and  O_23
   12  A    between atoms: C_24  and  O_25
   13  A    between atoms: O_25  and  C_26
                            x       y       z     vdW  Elec       q    Type
                         _______ _______ _______ _____ _____    ______ ____

>  <TORSDO>
F 11

>  <SCORE>
-5.239

>  <RMSD_LB>
4.855

>  <RMSD_UB>
9.122

$$$$
CHEMBL1699225
 OpenBabel10172500093D

 31 32  0  0  0  0  0  0  0  0999 V2000
  136.1610  132.0820  143.8650 C   0  0  0  0  0  2  0  0  0  0  0  0
  135.6580  133.0360  146.0600 N   0  0  0  0  0  0  0  0  0  0  0  0
  135.9930  131.8880  145.3750 C   0  0  0  0  0  0  0  0  0  0  0  0
  136.2040  130.8080  145.9220 O   0  0  0  0  0  0  0  0  0  0  0  0
  135.6120  133.8880  145.5700 H   0  0  0  0  0  0  0  0  0  0  0  0
  135.3690  133.0270  147.4760 C   0  0  0  0  0  2  0  0  0  0  0  0
  136.8830  136.5370  149.5050 C   0  0  0  0  0  0  0  0  0  0  0  0
  136.2500  135.5250  150.2370 C   0  0  0  0  0  3  0  0  0  0  0  0
  135.7430  134.3950  149.5810 C   0  0  0  0  0  3  0  0  0  0  0  0
  135.8680  134.2600  148.1910 C   0  0  0  0  0  0  0  0  0  0  0  0
  136.4940  135.2850  147.4670 C   0  0  0  0  0  3  0  0  0  0  0  0
  137.0090  136.4100  148.1170 C   0  0  0  0  0  3  0  0  0  0  0  0
  137.4450  137.7500  150.1550 C   0  0  0  0  0  0  0  0  0  0  0  0
  137.9340  137.7590  151.2720 O   0  0  0  0  0  0  0  0  0  0  0  0
  138.6230  139.4750  149.1080 C   0  0  0  0  0  1  0  0  0  0  0  0
  137.3770  138.8050  149.3020 O   0  0  0  0  0  0  0  0  0  0  0  0
  137.2720  132.9100  143.5050 O   0  0  0  0  0  0  0  0  0  0  0  0
  136.9940  133.8460  142.5610 C   0  0  0  0  0  0  0  0  0  0  0  0
  137.3960  133.8580  141.4110 O   0  0  0  0  0  0  0  0  0  0  0  0
  136.1070  134.8610  143.1670 C   0  0  0  0  0  3  0  0  0  0  0  0
  135.7990  135.9810  142.4920 C   0  0  0  0  0  3  0  0  0  0  0  0
  134.9290  137.0500  143.0090 C   0  0  0  0  0  0  0  0  0  0  0  0
  134.5910  138.1170  142.1690 C   0  0  0  0  0  3  0  0  0  0  0  0
  133.7500  139.1410  142.6170 C   0  0  0  0  0  3  0  0  0  0  0  0
  133.2180  139.0970  143.9070 C   0  0  0  0  0  0  0  0  0  0  0  0
  133.5080  138.0190  144.7490 C   0  0  0  0  0  0  0  0  0  0  0  0
  134.3730  137.0130  144.2950 C   0  0  0  0  0  3  0  0  0  0  0  0
  132.4320  140.1320  144.3290 O   0  0  0  0  0  0  0  0  0  0  0  0
  132.6100  141.0040  144.0390 H   0  0  0  0  0  0  0  0  0  0  0  0
  133.0710  137.8330  146.0340 O   0  0  0  0  0  0  0  0  0  0  0  0
  133.2040  136.5190  146.5610 C   0  0  0  0  0  1  0  0  0  0  0  0
  1  3  1  0  0  0  0
  2  6  1  0  0  0  0
  3  4  2  0  0  0  0
  3  2  1  0  0  0  0
  5  2  1  0  0  0  0
  6 10  1  0  0  0  0
  7 13  1  0  0  0  0
  7  8  1  0  0  0  0
  9  8  2  0  0  0  0
 10  9  1  0  0  0  0
 11 12  1  0  0  0  0
 11 10  2  0  0  0  0
 12  7  2  0  0  0  0
 13 14  2  0  0  0  0
 15 16  1  0  0  0  0
 16 13  1  0  0  0  0
 17  1  1  0  0  0  0
 18 20  1  0  0  0  0
 18 17  1  0  0  0  0
 19 18  2  0  0  0  0
 21 22  1  0  0  0  0
 21 20  2  0  0  0  0
 22 27  1  0  0  0  0
 23 24  1  0  0  0  0
 23 22  2  0  0  0  0
 24 25  2  0  0  0  0
 25 28  1  0  0  0  0
 25 26  1  0  0  0  0
 26 30  1  0  0  0  0
 27 26  2  0  0  0  0
 29 28  1  0  0  0  0
 30 31  1  0  0  0  0
M  END
>  <MODEL>
9

>  <REMARK>
 VINA RESULT:    -5.174      3.729      6.425
 INTER + INTRA:         -10.717
 INTER:                  -9.393
 INTRA:                  -1.324
 UNBOUND:                -2.368
  Name = CHEMBL1699225
  13 active torsions:
  status: ('A' for Active; 'I' for Inactive)
    1  A    between atoms: C_1  and  O_2
    2  A    between atoms: O_2  and  C_3
    3  A    between atoms: C_3  and  C_5
    4  A    between atoms: C_8  and  C_9
    5  A    between atoms: C_9  and  N_10
    6  A    between atoms: C_11  and  C_13
    7  A    between atoms: C_13  and  O_14
    8  A    between atoms: O_14  and  C_15
    9  A    between atoms: C_15  and  C_17
   10  A    between atoms: C_18  and  C_19
   11  A    between atoms: C_22  and  O_23
   12  A    between atoms: C_24  and  O_25
   13  A    between atoms: O_25  and  C_26
                            x       y       z     vdW  Elec       q    Type
                         _______ _______ _______ _____ _____    ______ ____

>  <TORSDO>
F 11

>  <SCORE>
-5.174

>  <RMSD_LB>
3.729

>  <RMSD_UB>
6.425

$$$$
